<?xml version="1.0" encoding="UTF-8"?>

<!-- generated on 2026-05-29 14:11:36 by Eclipse SUMO netconvert Version 1.18.0
<configuration xmlns:xsi="http://www.w3.org/2001/XMLSchema-instance" xsi:noNamespaceSchemaLocation="http://sumo.dlr.de/xsd/netconvertConfiguration.xsd">

    <input>
        <node-files value="baku.nod.xml"/>
        <edge-files value="baku.edg.xml"/>
        <connection-files value="baku.con.xml"/>
    </input>

    <output>
        <output-file value="baku.net.xml"/>
    </output>

    <junctions>
        <no-turnarounds value="true"/>
    </junctions>

    <pedestrian>
        <sidewalks.guess value="true"/>
        <crossings.guess value="false"/>
    </pedestrian>

</configuration>
-->

<net version="1.16" junctionCornerDetail="5" limitTurnSpeed="5.50" xmlns:xsi="http://www.w3.org/2001/XMLSchema-instance" xsi:noNamespaceSchemaLocation="http://sumo.dlr.de/xsd/net_file.xsd">

    <location netOffset="400.00,400.00" convBoundary="0.00,0.00,800.00,800.00" origBoundary="-400.00,-400.00,400.00,400.00" projParameter="!"/>

    <edge id=":Central_0" function="internal">
        <lane id=":Central_0_0" index="0" disallow="pedestrian" speed="11.11" length="28.85" shape="395.20,414.43 395.20,385.57"/>
        <lane id=":Central_0_1" index="1" disallow="pedestrian" speed="11.11" length="28.85" shape="398.40,414.43 398.40,385.57"/>
    </edge>
    <edge id=":Central_2" function="internal">
        <lane id=":Central_2_0" index="0" disallow="pedestrian" speed="10.63" length="21.80" shape="398.40,414.43 399.40,407.41 402.41,402.41 407.41,399.40 410.43,398.97"/>
    </edge>
    <edge id=":Central_6" function="internal">
        <lane id=":Central_6_0" index="0" disallow="pedestrian" speed="10.63" length="4.04" shape="410.43,398.97 414.43,398.40"/>
    </edge>
    <edge id=":Central_3" function="internal">
        <lane id=":Central_3_0" index="0" disallow="pedestrian" speed="8.34" length="11.48" shape="385.57,395.20 389.79,394.60 392.79,392.79 394.60,389.79 394.63,389.57"/>
    </edge>
    <edge id=":Central_4" function="internal">
        <lane id=":Central_4_0" index="0" disallow="pedestrian" speed="11.11" length="28.85" shape="385.57,395.20 414.43,395.20"/>
        <lane id=":Central_4_1" index="1" disallow="pedestrian" speed="11.11" length="28.85" shape="385.57,398.40 414.43,398.40"/>
    </edge>
    <edge id=":Central_7" function="internal">
        <lane id=":Central_7_0" index="0" disallow="pedestrian" speed="8.34" length="4.04" shape="394.63,389.57 395.20,385.57"/>
    </edge>
    <edge id=":Central_c0" function="crossing" crossingEdges="N_to_C">
        <lane id=":Central_c0_0" index="0" allow="pedestrian" speed="2.78" length="6.40" width="4.00" shape="400.00,412.43 393.60,412.43"/>
    </edge>
    <edge id=":Central_c1" function="crossing" crossingEdges="C_to_E">
        <lane id=":Central_c1_0" index="0" allow="pedestrian" speed="2.78" length="6.40" width="4.00" shape="412.43,393.60 412.43,400.00"/>
    </edge>
    <edge id=":Central_c2" function="crossing" crossingEdges="C_to_S">
        <lane id=":Central_c2_0" index="0" allow="pedestrian" speed="2.78" length="6.40" width="4.00" shape="393.60,387.57 400.00,387.57"/>
    </edge>
    <edge id=":Central_c3" function="crossing" crossingEdges="W_to_C">
        <lane id=":Central_c3_0" index="0" allow="pedestrian" speed="2.78" length="6.40" width="4.00" shape="387.57,400.00 387.57,393.60"/>
    </edge>
    <edge id=":Central_w0" function="walkingarea">
        <lane id=":Central_w0_0" index="0" allow="pedestrian" speed="2.78" length="7.93" width="4.00" shape="385.57,400.00 386.01,409.46 388.28,411.72 390.54,413.99 391.60,414.43 393.60,414.43 393.38,410.02 392.71,406.41 391.59,403.61 390.03,401.60 388.03,400.40"/>
    </edge>
    <edge id=":Central_w1" function="walkingarea">
        <lane id=":Central_w1_0" index="0" allow="pedestrian" speed="2.78" length="9.94" width="4.00" shape="400.00,414.43 401.06,405.59 403.32,403.32 405.59,401.06 414.43,400.00 410.02,400.40 406.41,401.60 403.61,403.61 401.60,406.41 400.40,410.02"/>
    </edge>
    <edge id=":Central_w2" function="walkingarea">
        <lane id=":Central_w2_0" index="0" allow="pedestrian" speed="2.78" length="7.93" width="4.00" shape="414.43,393.60 414.43,391.60 413.99,390.54 411.72,388.28 409.46,386.01 400.00,385.57 400.40,388.03 401.60,390.03 403.61,391.59 406.41,392.71 410.02,393.38"/>
    </edge>
    <edge id=":Central_w3" function="walkingarea">
        <lane id=":Central_w3_0" index="0" allow="pedestrian" speed="2.78" length="5.82" width="4.00" shape="393.60,385.57 391.60,385.57 390.54,386.01 388.28,388.28 386.01,390.54 385.57,391.60 385.57,393.60 388.03,393.38 390.03,392.71 391.59,391.59 392.71,390.03 393.38,388.03"/>
    </edge>
    <edge id=":NE_ped_w0" function="walkingarea">
        <lane id=":NE_ped_w0_0" index="0" allow="pedestrian" speed="2.78" length="3.20" width="3.20" shape="600.00,600.00 597.74,602.26 602.26,597.74 600.00,600.00"/>
    </edge>
    <edge id=":NW_ped_w0" function="walkingarea">
        <lane id=":NW_ped_w0_0" index="0" allow="pedestrian" speed="2.78" length="3.20" width="3.20" shape="200.00,600.00 197.74,597.74 202.26,602.26 200.00,600.00"/>
    </edge>
    <edge id=":SE_ped_w0" function="walkingarea">
        <lane id=":SE_ped_w0_0" index="0" allow="pedestrian" speed="2.78" length="3.20" width="3.20" shape="600.00,200.00 602.26,202.26 597.74,197.74 600.00,200.00"/>
    </edge>
    <edge id=":SW_ped_w0" function="walkingarea">
        <lane id=":SW_ped_w0_0" index="0" allow="pedestrian" speed="2.78" length="3.20" width="3.20" shape="200.00,200.00 202.26,197.74 197.74,202.26 200.00,200.00"/>
    </edge>

    <edge id="C_to_E" from="Central" to="E_exit" priority="-1">
        <lane id="C_to_E_0" index="0" allow="pedestrian" speed="11.11" length="385.57" width="2.00" shape="414.43,392.60 800.00,392.60"/>
        <lane id="C_to_E_1" index="1" disallow="pedestrian" speed="11.11" length="385.57" shape="414.43,395.20 800.00,395.20"/>
        <lane id="C_to_E_2" index="2" disallow="pedestrian" speed="11.11" length="385.57" shape="414.43,398.40 800.00,398.40"/>
    </edge>
    <edge id="C_to_NE" from="Central" to="NE_ped" priority="-1">
        <lane id="C_to_NE_0" index="0" allow="pedestrian" speed="5.56" length="278.14" shape="404.45,402.19 601.13,598.87"/>
    </edge>
    <edge id="C_to_NW" from="Central" to="NW_ped" priority="-1">
        <lane id="C_to_NW_0" index="0" allow="pedestrian" speed="5.56" length="266.26" shape="389.41,412.85 201.13,601.13"/>
    </edge>
    <edge id="C_to_S" from="Central" to="S_exit" priority="-1">
        <lane id="C_to_S_0" index="0" allow="pedestrian" speed="11.11" length="385.57" width="2.00" shape="392.60,385.57 392.60,0.00"/>
        <lane id="C_to_S_1" index="1" disallow="pedestrian" speed="11.11" length="385.57" shape="395.20,385.57 395.20,0.00"/>
        <lane id="C_to_S_2" index="2" disallow="pedestrian" speed="11.11" length="385.57" shape="398.40,385.57 398.40,0.00"/>
    </edge>
    <edge id="C_to_SE" from="Central" to="SE_ped" priority="-1">
        <lane id="C_to_SE_0" index="0" allow="pedestrian" speed="5.56" length="266.26" shape="410.59,387.15 598.87,198.87"/>
    </edge>
    <edge id="C_to_SW" from="Central" to="SW_ped" priority="-1">
        <lane id="C_to_SW_0" index="0" allow="pedestrian" speed="5.56" length="266.26" shape="387.15,389.41 198.87,201.13"/>
    </edge>
    <edge id="NE_to_C" from="NE_ped" to="Central" priority="-1">
        <lane id="NE_to_C_0" index="0" allow="pedestrian" speed="5.56" length="278.14" shape="598.87,601.13 402.19,404.45"/>
    </edge>
    <edge id="NW_to_C" from="NW_ped" to="Central" priority="-1">
        <lane id="NW_to_C_0" index="0" allow="pedestrian" speed="5.56" length="266.26" shape="198.87,598.87 387.15,410.59"/>
    </edge>
    <edge id="N_to_C" from="N_entry" to="Central" priority="-1">
        <lane id="N_to_C_0" index="0" allow="pedestrian" speed="11.11" length="385.57" width="2.00" shape="392.60,800.00 392.60,414.43"/>
        <lane id="N_to_C_1" index="1" disallow="pedestrian" speed="11.11" length="385.57" shape="395.20,800.00 395.20,414.43"/>
        <lane id="N_to_C_2" index="2" disallow="pedestrian" speed="11.11" length="385.57" shape="398.40,800.00 398.40,414.43"/>
    </edge>
    <edge id="SE_to_C" from="SE_ped" to="Central" priority="-1">
        <lane id="SE_to_C_0" index="0" allow="pedestrian" speed="5.56" length="266.26" shape="601.13,201.13 412.85,389.41"/>
    </edge>
    <edge id="SW_to_C" from="SW_ped" to="Central" priority="-1">
        <lane id="SW_to_C_0" index="0" allow="pedestrian" speed="5.56" length="266.26" shape="201.13,198.87 389.41,387.15"/>
    </edge>
    <edge id="W_to_C" from="W_entry" to="Central" priority="-1">
        <lane id="W_to_C_0" index="0" allow="pedestrian" speed="11.11" length="385.57" width="2.00" shape="0.00,392.60 385.57,392.60"/>
        <lane id="W_to_C_1" index="1" disallow="pedestrian" speed="11.11" length="385.57" shape="0.00,395.20 385.57,395.20"/>
        <lane id="W_to_C_2" index="2" disallow="pedestrian" speed="11.11" length="385.57" shape="0.00,398.40 385.57,398.40"/>
    </edge>

    <tlLogic id="Central" type="static" programID="0" offset="0">
        <phase duration="37" state="rrrgGGGrGr"/>
        <phase duration="5"  state="rrrgGGrrrr"/>
        <phase duration="3"  state="rrryyyrrrr"/>
        <phase duration="37" state="GGgrrrrGrG"/>
        <phase duration="5"  state="GGgrrrrrrr"/>
        <phase duration="3"  state="yyyrrrrrrr"/>
    </tlLogic>

    <junction id="Central" type="traffic_light" x="400.00" y="400.00" incLanes="N_to_C_0 N_to_C_1 N_to_C_2 NE_to_C_0 SE_to_C_0 SW_to_C_0 W_to_C_0 W_to_C_1 W_to_C_2 NW_to_C_0 :Central_w1_0 :Central_w2_0 :Central_w3_0 :Central_w0_0" intLanes=":Central_0_0 :Central_0_1 :Central_6_0 :Central_7_0 :Central_4_0 :Central_4_1 :Central_c0_0 :Central_c1_0 :Central_c2_0 :Central_c3_0" shape="391.60,414.43 400.00,414.43 400.03,411.43 400.12,409.04 400.27,407.27 400.47,406.10 400.74,405.54 401.06,405.59 405.59,401.06 406.10,400.47 407.27,400.27 409.04,400.12 411.43,400.03 414.43,400.00 414.43,391.60 413.71,391.48 413.57,391.33 413.56,391.13 413.70,390.86 413.99,390.54 409.46,386.01 406.57,388.63 404.20,390.17 402.37,390.63 401.05,390.02 400.26,388.34 400.00,385.57 391.60,385.57 391.48,386.29 391.33,386.43 391.13,386.44 390.86,386.30 390.54,386.01 386.01,390.54 386.44,391.13 386.43,391.33 386.29,391.48 386.00,391.57 385.57,391.60 385.57,400.00 388.34,400.26 390.02,401.05 390.63,402.37 390.17,404.20 388.63,406.57 386.01,409.46 390.54,413.99 391.13,413.56 391.33,413.57 391.48,413.71 391.57,414.00">
        <request index="0" response="0101111000" foes="0101111000" cont="0"/>
        <request index="1" response="0101111000" foes="0101111000" cont="0"/>
        <request index="2" response="0011110000" foes="0011110000" cont="1"/>
        <request index="3" response="1100000011" foes="1100000011" cont="1"/>
        <request index="4" response="1010000100" foes="1010000111" cont="0"/>
        <request index="5" response="1010000100" foes="1010000111" cont="0"/>
        <request index="6" response="0000000000" foes="0000000111" cont="0"/>
        <request index="7" response="0000000000" foes="0000110100" cont="0"/>
        <request index="8" response="0000000000" foes="0000001011" cont="0"/>
        <request index="9" response="0000000000" foes="0000111000" cont="0"/>
    </junction>
    <junction id="E_exit" type="dead_end" x="800.00" y="400.00" incLanes="C_to_E_0 C_to_E_1 C_to_E_2" intLanes="" shape="800.00,391.60 800.00,400.00"/>
    <junction id="NE_ped" type="dead_end" x="600.00" y="600.00" incLanes="C_to_NE_0" intLanes="" shape="600.00,600.00 602.26,597.74 600.00,600.00"/>
    <junction id="NW_ped" type="dead_end" x="200.00" y="600.00" incLanes="C_to_NW_0" intLanes="" shape="200.00,600.00 202.26,602.26 200.00,600.00"/>
    <junction id="N_entry" type="dead_end" x="400.00" y="800.00" incLanes="" intLanes="" shape="400.00,800.00 391.60,800.00"/>
    <junction id="SE_ped" type="dead_end" x="600.00" y="200.00" incLanes="C_to_SE_0" intLanes="" shape="600.00,200.00 597.74,197.74 600.00,200.00"/>
    <junction id="SW_ped" type="dead_end" x="200.00" y="200.00" incLanes="C_to_SW_0" intLanes="" shape="200.00,200.00 197.74,202.26 200.00,200.00"/>
    <junction id="S_exit" type="dead_end" x="400.00" y="0.00" incLanes="C_to_S_0 C_to_S_1 C_to_S_2" intLanes="" shape="391.60,0.00 400.00,0.00"/>
    <junction id="W_entry" type="dead_end" x="0.00" y="400.00" incLanes="" intLanes="" shape="0.00,400.00 0.00,391.60"/>

    <junction id=":Central_6_0" type="internal" x="410.43" y="398.97" incLanes=":Central_2_0" intLanes=":Central_4_0 :Central_4_1 :Central_c0_0 :Central_c1_0"/>
    <junction id=":Central_7_0" type="internal" x="394.63" y="389.57" incLanes=":Central_3_0" intLanes=":Central_0_0 :Central_0_1 :Central_c2_0 :Central_c3_0"/>

    <connection from="N_to_C" to="C_to_S" fromLane="1" toLane="1" via=":Central_0_0" tl="Central" linkIndex="0" dir="s" state="o"/>
    <connection from="N_to_C" to="C_to_S" fromLane="2" toLane="2" via=":Central_0_1" tl="Central" linkIndex="1" dir="s" state="o"/>
    <connection from="N_to_C" to="C_to_E" fromLane="2" toLane="2" via=":Central_2_0" tl="Central" linkIndex="2" dir="l" state="o"/>
    <connection from="W_to_C" to="C_to_S" fromLane="1" toLane="1" via=":Central_3_0" tl="Central" linkIndex="3" dir="r" state="o"/>
    <connection from="W_to_C" to="C_to_E" fromLane="1" toLane="1" via=":Central_4_0" tl="Central" linkIndex="4" dir="s" state="o"/>
    <connection from="W_to_C" to="C_to_E" fromLane="2" toLane="2" via=":Central_4_1" tl="Central" linkIndex="5" dir="s" state="o"/>

    <connection from=":Central_0" to="C_to_S" fromLane="0" toLane="1" dir="s" state="M"/>
    <connection from=":Central_0" to="C_to_S" fromLane="1" toLane="2" dir="s" state="M"/>
    <connection from=":Central_2" to="C_to_E" fromLane="0" toLane="2" via=":Central_6_0" dir="l" state="m"/>
    <connection from=":Central_6" to="C_to_E" fromLane="0" toLane="2" dir="l" state="m"/>
    <connection from=":Central_3" to="C_to_S" fromLane="0" toLane="1" via=":Central_7_0" dir="r" state="m"/>
    <connection from=":Central_7" to="C_to_S" fromLane="0" toLane="1" dir="r" state="m"/>
    <connection from=":Central_4" to="C_to_E" fromLane="0" toLane="1" dir="s" state="M"/>
    <connection from=":Central_4" to="C_to_E" fromLane="1" toLane="2" dir="s" state="M"/>

    <connection from=":Central_c0" to=":Central_w0" fromLane="0" toLane="0" dir="s" state="M"/>
    <connection from=":Central_c1" to=":Central_w1" fromLane="0" toLane="0" dir="s" state="M"/>
    <connection from=":Central_c2" to=":Central_w2" fromLane="0" toLane="0" dir="s" state="M"/>
    <connection from=":Central_c3" to=":Central_w3" fromLane="0" toLane="0" dir="s" state="M"/>
    <connection from=":Central_w0" to=":Central_c3" fromLane="0" toLane="0" tl="Central" linkIndex="9" dir="s" state="M"/>
    <connection from=":Central_w0" to="C_to_NW" fromLane="0" toLane="0" dir="s" state="M"/>
    <connection from="NW_to_C" to=":Central_w0" fromLane="0" toLane="0" dir="s" state="M"/>
    <connection from="N_to_C" to=":Central_w0" fromLane="0" toLane="0" dir="s" state="M"/>
    <connection from=":Central_w1" to=":Central_c0" fromLane="0" toLane="0" tl="Central" linkIndex="6" dir="s" state="M"/>
    <connection from=":Central_w1" to="C_to_NE" fromLane="0" toLane="0" dir="s" state="M"/>
    <connection from="NE_to_C" to=":Central_w1" fromLane="0" toLane="0" dir="s" state="M"/>
    <connection from=":Central_w2" to=":Central_c1" fromLane="0" toLane="0" tl="Central" linkIndex="7" dir="s" state="M"/>
    <connection from=":Central_w2" to="C_to_E" fromLane="0" toLane="0" dir="s" state="M"/>
    <connection from=":Central_w2" to="C_to_SE" fromLane="0" toLane="0" dir="s" state="M"/>
    <connection from="SE_to_C" to=":Central_w2" fromLane="0" toLane="0" dir="s" state="M"/>
    <connection from=":Central_w3" to=":Central_c2" fromLane="0" toLane="0" tl="Central" linkIndex="8" dir="s" state="M"/>
    <connection from=":Central_w3" to="C_to_S" fromLane="0" toLane="0" dir="s" state="M"/>
    <connection from=":Central_w3" to="C_to_SW" fromLane="0" toLane="0" dir="s" state="M"/>
    <connection from="SW_to_C" to=":Central_w3" fromLane="0" toLane="0" dir="s" state="M"/>
    <connection from="W_to_C" to=":Central_w3" fromLane="0" toLane="0" dir="s" state="M"/>
    <connection from=":NE_ped_w0" to="NE_to_C" fromLane="0" toLane="0" dir="s" state="M"/>
    <connection from="C_to_NE" to=":NE_ped_w0" fromLane="0" toLane="0" dir="s" state="M"/>
    <connection from=":NW_ped_w0" to="NW_to_C" fromLane="0" toLane="0" dir="s" state="M"/>
    <connection from="C_to_NW" to=":NW_ped_w0" fromLane="0" toLane="0" dir="s" state="M"/>
    <connection from=":SE_ped_w0" to="SE_to_C" fromLane="0" toLane="0" dir="s" state="M"/>
    <connection from="C_to_SE" to=":SE_ped_w0" fromLane="0" toLane="0" dir="s" state="M"/>
    <connection from=":SW_ped_w0" to="SW_to_C" fromLane="0" toLane="0" dir="s" state="M"/>
    <connection from="C_to_SW" to=":SW_ped_w0" fromLane="0" toLane="0" dir="s" state="M"/>
</net>
