<connections>
    <connection from="L1_to_C" to="C_to_L2"/>
    <connection from="L1_to_C" to="C_to_L3"/>
    <connection from="L1_to_C" to="C_to_L4"/>
    <connection from="L1_to_C" to="C_to_L5"/>
    <connection from="L1_to_C" to="C_to_L6"/>
    <connection from="Ext1_to_Int1" to="Int1_to_L1"/>
    <connection from="L1_to_Int1" to="Int1_to_Ext1"/>
    <connection from="Int1_to_Ext1" to="Ext1_to_Sink1"/>
    <connection from="L2_to_C" to="C_to_L1"/>
    <connection from="L2_to_C" to="C_to_L3"/>
    <connection from="L2_to_C" to="C_to_L4"/>
    <connection from="L2_to_C" to="C_to_L5"/>
    <connection from="L2_to_C" to="C_to_L6"/>
    <connection from="Ext2_to_Int2" to="Int2_to_L2"/>
    <connection from="L2_to_Int2" to="Int2_to_Ext2"/>
    <connection from="Int2_to_Ext2" to="Ext2_to_Sink2"/>
    <connection from="L3_to_C" to="C_to_L1"/>
    <connection from="L3_to_C" to="C_to_L2"/>
    <connection from="L3_to_C" to="C_to_L4"/>
    <connection from="L3_to_C" to="C_to_L5"/>
    <connection from="L3_to_C" to="C_to_L6"/>
    <connection from="Ext3_to_Int3" to="Int3_to_L3"/>
    <connection from="L3_to_Int3" to="Int3_to_Ext3"/>
    <connection from="Int3_to_Ext3" to="Ext3_to_Sink3"/>
    <connection from="L4_to_C" to="C_to_L1"/>
    <connection from="L4_to_C" to="C_to_L2"/>
    <connection from="L4_to_C" to="C_to_L3"/>
    <connection from="L4_to_C" to="C_to_L5"/>
    <connection from="L4_to_C" to="C_to_L6"/>
    <connection from="L4_to_Int4" to="Int4_to_Ext4"/>
    <connection from="Ext4_to_Int4" to="Int4_to_L4"/>
    <connection from="Int4_to_Ext4" to="Ext4_to_Sink4"/>
    <connection from="L5_to_C" to="C_to_L1"/>
    <connection from="L5_to_C" to="C_to_L2"/>
    <connection from="L5_to_C" to="C_to_L3"/>
    <connection from="L5_to_C" to="C_to_L4"/>
    <connection from="L5_to_C" to="C_to_L6"/>
    <connection from="Ext5_to_Int5" to="Int5_to_L5"/>
    <connection from="L5_to_Int5" to="Int5_to_Ext5"/>
    <connection from="Int5_to_Ext5" to="Ext5_to_Sink5"/>
    <connection from="L6_to_C" to="C_to_L1"/>
    <connection from="L6_to_C" to="C_to_L2"/>
    <connection from="L6_to_C" to="C_to_L3"/>
    <connection from="L6_to_C" to="C_to_L4"/>
    <connection from="L6_to_C" to="C_to_L5"/>
    <connection from="Ext6_to_Int6" to="Int6_to_L6"/>
    <connection from="L6_to_Int6" to="Int6_to_Ext6"/>
    <connection from="Int6_to_Ext6" to="Ext6_to_Sink6"/>
    <connection from="Ext1_to_Int1" to="BP_1_2"/>
    <connection from="BP_1_2" to="Int2_to_Ext2"/>
    <connection from="Ext1_to_Int1" to="BP_1_3"/>
    <connection from="BP_1_3" to="Int3_to_Ext3"/>
    <connection from="Ext6_to_Int6" to="BP_6_5"/>
    <connection from="BP_6_5" to="Int5_to_Ext5"/>
    <connection from="Ext6_to_Int6" to="BP_6_4"/>
    <connection from="BP_6_4" to="Int4_to_Ext4"/>
    <connection from="Ext1_to_Int1" to="BP_1_6"/>
    <connection from="BP_1_6" to="Int6_to_Ext6"/>
    <connection from="Ext3_to_Int3" to="BP_3_4"/>
    <connection from="BP_3_4" to="Int4_to_Ext4"/>
</connections>