<?xml version="1.0" encoding="UTF-8"?>

<!-- generated on 2026-02-20T13:38:00.837052+04:00 by Eclipse SUMO netconvert v1_26_0+0011-e6bc1103481
<netconvertConfiguration xmlns:xsi="http://www.w3.org/2001/XMLSchema-instance" xsi:noNamespaceSchemaLocation="http://sumo.dlr.de/xsd/netconvertConfiguration.xsd">

    <input>
        <node-files value="baku.nod.xml"/>
        <edge-files value="baku.edg.xml"/>
    </input>

    <output>
        <output-file value="baku.net.xml"/>
    </output>

</netconvertConfiguration>
-->

<net version="1.20" junctionCornerDetail="5" limitTurnSpeed="5.50" xmlns:xsi="http://www.w3.org/2001/XMLSchema-instance" xsi:noNamespaceSchemaLocation="http://sumo.dlr.de/xsd/net_file.xsd">

    <location netOffset="1500.00,1299.04" convBoundary="0.00,0.00,3000.00,2598.08" origBoundary="-1500.00,-1299.04,1500.00,1299.04" projParameter="!"/>

    <edge id=":CIRCLE_0" function="internal">
        <lane id=":CIRCLE_0_0" index="0" speed="13.89" length="62.96" shape="1523.07,1355.00 1511.54,1340.02 1500.00,1335.02 1488.46,1340.02 1476.93,1355.00"/>
    </edge>
    <edge id=":CIRCLE_1" function="internal">
        <lane id=":CIRCLE_1_0" index="0" speed="13.89" length="100.72" shape="1523.07,1355.00 1507.50,1334.02 1488.46,1319.03 1465.96,1310.04 1440.00,1307.04"/>
    </edge>
    <edge id=":CIRCLE_2" function="internal">
        <lane id=":CIRCLE_2_0" index="0" speed="13.89" length="120.01" shape="1523.07,1355.00 1463.07,1251.08"/>
        <lane id=":CIRCLE_2_1" index="1" speed="13.89" length="120.01" shape="1525.84,1353.40 1465.84,1249.48"/>
        <lane id=":CIRCLE_2_2" index="2" speed="13.89" length="120.01" shape="1525.84,1353.40 1468.61,1247.88"/>
    </edge>
    <edge id=":CIRCLE_5" function="internal">
        <lane id=":CIRCLE_5_0" index="0" speed="13.89" length="114.16" shape="1525.84,1353.40 1514.07,1326.22 1510.15,1299.04 1514.07,1271.86 1525.84,1244.68"/>
        <lane id=":CIRCLE_5_1" index="1" speed="13.89" length="110.80" shape="1528.61,1351.80 1517.19,1325.42 1513.38,1299.04 1517.19,1272.66 1528.61,1246.28"/>
    </edge>
    <edge id=":CIRCLE_7" function="internal">
        <lane id=":CIRCLE_7_0" index="0" speed="13.89" length="80.16" shape="1528.61,1351.80 1521.26,1330.57 1524.69,1313.30 1537.93,1301.69 1560.00,1297.44"/>
    </edge>
    <edge id=":CIRCLE_8" function="internal">
        <lane id=":CIRCLE_8_0" index="0" speed="3.65" length="4.67" shape="1528.61,1351.80 1528.71,1350.36 1529.20,1349.62 1530.09,1349.56 1531.39,1350.20"/>
    </edge>
    <edge id=":CIRCLE_9" function="internal">
        <lane id=":CIRCLE_9_0" index="0" speed="13.89" length="62.96" shape="1560.00,1307.04 1541.25,1309.54 1531.16,1317.03 1529.72,1329.52 1536.93,1347.00"/>
    </edge>
    <edge id=":CIRCLE_10" function="internal">
        <lane id=":CIRCLE_10_0" index="0" speed="13.89" length="100.72" shape="1560.00,1307.04 1534.04,1310.04 1511.54,1319.03 1492.50,1334.02 1476.93,1355.00"/>
    </edge>
    <edge id=":CIRCLE_11" function="internal">
        <lane id=":CIRCLE_11_0" index="0" speed="13.89" length="120.00" shape="1560.00,1307.04 1440.00,1307.04"/>
        <lane id=":CIRCLE_11_1" index="1" speed="13.89" length="120.00" shape="1560.00,1303.84 1440.00,1303.84"/>
        <lane id=":CIRCLE_11_2" index="2" speed="13.89" length="120.00" shape="1560.00,1300.64 1440.00,1300.64"/>
    </edge>
    <edge id=":CIRCLE_14" function="internal">
        <lane id=":CIRCLE_14_0" index="0" speed="13.89" length="6.15" shape="1560.00,1300.64 1553.89,1299.93"/>
    </edge>
    <edge id=":CIRCLE_15" function="internal">
        <lane id=":CIRCLE_15_0" index="0" speed="13.89" length="3.79" shape="1560.00,1300.64 1556.28,1299.92"/>
    </edge>
    <edge id=":CIRCLE_16" function="internal">
        <lane id=":CIRCLE_16_0" index="0" speed="3.65" length="1.44" shape="1560.00,1300.64 1558.80,1299.84"/>
    </edge>
    <edge id=":CIRCLE_52" function="internal">
        <lane id=":CIRCLE_52_0" index="0" speed="13.89" length="104.65" shape="1553.89,1299.93 1531.44,1297.34 1506.69,1287.45 1485.75,1270.96 1468.61,1247.88"/>
    </edge>
    <edge id=":CIRCLE_53" function="internal">
        <lane id=":CIRCLE_53_0" index="0" speed="13.89" length="76.37" shape="1556.28,1299.92 1537.93,1296.39 1524.69,1284.78 1521.26,1267.51 1528.61,1246.28"/>
    </edge>
    <edge id=":CIRCLE_54" function="internal">
        <lane id=":CIRCLE_54_0" index="0" speed="3.65" length="3.23" shape="1558.80,1299.84 1558.40,1299.04 1558.80,1298.24 1560.00,1297.44"/>
    </edge>
    <edge id=":CIRCLE_17" function="internal">
        <lane id=":CIRCLE_17_0" index="0" speed="13.89" length="62.96" shape="1536.93,1251.08 1529.72,1268.56 1531.16,1281.05 1541.25,1288.54 1560.00,1291.04"/>
    </edge>
    <edge id=":CIRCLE_18" function="internal">
        <lane id=":CIRCLE_18_0" index="0" speed="13.89" length="102.42" shape="1534.16,1249.48 1524.29,1272.96 1521.47,1297.04 1525.68,1321.72 1536.93,1347.00"/>
    </edge>
    <edge id=":CIRCLE_19" function="internal">
        <lane id=":CIRCLE_19_0" index="0" speed="13.89" length="120.03" shape="1534.16,1249.48 1476.93,1355.00"/>
        <lane id=":CIRCLE_19_1" index="1" speed="13.89" length="120.03" shape="1534.16,1249.48 1474.16,1353.40"/>
        <lane id=":CIRCLE_19_2" index="2" speed="13.89" length="120.03" shape="1534.16,1249.48 1471.39,1351.80"/>
    </edge>
    <edge id=":CIRCLE_22" function="internal">
        <lane id=":CIRCLE_22_0" index="0" speed="13.89" length="114.16" shape="1534.16,1249.48 1516.50,1273.26 1494.92,1290.25 1469.42,1300.44 1440.00,1303.84"/>
        <lane id=":CIRCLE_22_1" index="1" speed="13.89" length="110.80" shape="1531.39,1247.88 1514.25,1270.96 1493.31,1287.45 1468.56,1297.34 1440.00,1300.64"/>
    </edge>
    <edge id=":CIRCLE_24" function="internal">
        <lane id=":CIRCLE_24_0" index="0" speed="13.89" length="80.16" shape="1531.39,1247.88 1516.67,1264.87 1500.00,1270.53 1483.33,1264.87 1468.61,1247.88"/>
    </edge>
    <edge id=":CIRCLE_25" function="internal">
        <lane id=":CIRCLE_25_0" index="0" speed="3.65" length="4.67" shape="1531.39,1247.88 1530.09,1248.52 1529.20,1248.46 1528.71,1247.72 1528.61,1246.28"/>
    </edge>
    <edge id=":CIRCLE_26" function="internal">
        <lane id=":CIRCLE_26_0" index="0" speed="13.89" length="62.96" shape="1476.93,1243.08 1488.46,1258.06 1500.00,1263.06 1511.54,1258.06 1523.07,1243.08"/>
    </edge>
    <edge id=":CIRCLE_27" function="internal">
        <lane id=":CIRCLE_27_0" index="0" speed="13.89" length="100.72" shape="1476.93,1243.08 1492.50,1264.06 1511.54,1279.05 1534.04,1288.04 1560.00,1291.04"/>
    </edge>
    <edge id=":CIRCLE_28" function="internal">
        <lane id=":CIRCLE_28_0" index="0" speed="13.89" length="120.01" shape="1476.93,1243.08 1536.93,1347.00"/>
        <lane id=":CIRCLE_28_1" index="1" speed="13.89" length="120.01" shape="1474.16,1244.68 1534.16,1348.60"/>
        <lane id=":CIRCLE_28_2" index="2" speed="13.89" length="120.01" shape="1474.16,1244.68 1531.39,1350.20"/>
    </edge>
    <edge id=":CIRCLE_31" function="internal">
        <lane id=":CIRCLE_31_0" index="0" speed="13.89" length="114.16" shape="1474.16,1244.68 1485.93,1271.86 1489.85,1299.04 1485.93,1326.22 1474.16,1353.40"/>
        <lane id=":CIRCLE_31_1" index="1" speed="13.89" length="110.80" shape="1471.39,1246.28 1482.81,1272.66 1486.62,1299.04 1482.81,1325.42 1471.39,1351.80"/>
    </edge>
    <edge id=":CIRCLE_33" function="internal">
        <lane id=":CIRCLE_33_0" index="0" speed="13.89" length="80.16" shape="1471.39,1246.28 1478.74,1267.51 1475.31,1284.78 1462.07,1296.39 1440.00,1300.64"/>
    </edge>
    <edge id=":CIRCLE_34" function="internal">
        <lane id=":CIRCLE_34_0" index="0" speed="3.65" length="4.67" shape="1471.39,1246.28 1471.29,1247.72 1470.80,1248.46 1469.91,1248.52 1468.61,1247.88"/>
    </edge>
    <edge id=":CIRCLE_35" function="internal">
        <lane id=":CIRCLE_35_0" index="0" speed="13.89" length="62.96" shape="1440.00,1291.04 1458.75,1288.54 1468.84,1281.05 1470.28,1268.56 1463.07,1251.08"/>
    </edge>
    <edge id=":CIRCLE_36" function="internal">
        <lane id=":CIRCLE_36_0" index="0" speed="13.89" length="100.72" shape="1440.00,1291.04 1465.96,1288.04 1488.46,1279.05 1507.50,1264.06 1523.07,1243.08"/>
    </edge>
    <edge id=":CIRCLE_37" function="internal">
        <lane id=":CIRCLE_37_0" index="0" speed="13.89" length="120.00" shape="1440.00,1291.04 1560.00,1291.04"/>
        <lane id=":CIRCLE_37_1" index="1" speed="13.89" length="120.00" shape="1440.00,1294.24 1560.00,1294.24"/>
        <lane id=":CIRCLE_37_2" index="2" speed="13.89" length="120.00" shape="1440.00,1297.44 1560.00,1297.44"/>
    </edge>
    <edge id=":CIRCLE_40" function="internal">
        <lane id=":CIRCLE_40_0" index="0" speed="13.89" length="6.15" shape="1440.00,1297.44 1446.11,1298.15"/>
    </edge>
    <edge id=":CIRCLE_41" function="internal">
        <lane id=":CIRCLE_41_0" index="0" speed="13.89" length="3.79" shape="1440.00,1297.44 1443.72,1298.16"/>
    </edge>
    <edge id=":CIRCLE_42" function="internal">
        <lane id=":CIRCLE_42_0" index="0" speed="3.65" length="1.44" shape="1440.00,1297.44 1441.20,1298.24"/>
    </edge>
    <edge id=":CIRCLE_55" function="internal">
        <lane id=":CIRCLE_55_0" index="0" speed="13.89" length="104.65" shape="1446.11,1298.15 1468.56,1300.74 1493.31,1310.63 1514.25,1327.12 1531.39,1350.20"/>
    </edge>
    <edge id=":CIRCLE_56" function="internal">
        <lane id=":CIRCLE_56_0" index="0" speed="13.89" length="76.37" shape="1443.72,1298.16 1462.07,1301.69 1475.31,1313.30 1478.74,1330.57 1471.39,1351.80"/>
    </edge>
    <edge id=":CIRCLE_57" function="internal">
        <lane id=":CIRCLE_57_0" index="0" speed="3.65" length="3.23" shape="1441.20,1298.24 1441.60,1299.04 1441.20,1299.84 1440.00,1300.64"/>
    </edge>
    <edge id=":CIRCLE_43" function="internal">
        <lane id=":CIRCLE_43_0" index="0" speed="13.89" length="62.96" shape="1463.07,1347.00 1470.28,1329.52 1468.84,1317.03 1458.75,1309.54 1440.00,1307.04"/>
    </edge>
    <edge id=":CIRCLE_44" function="internal">
        <lane id=":CIRCLE_44_0" index="0" speed="13.89" length="102.42" shape="1465.84,1348.60 1475.71,1325.12 1478.53,1301.04 1474.32,1276.36 1463.07,1251.08"/>
    </edge>
    <edge id=":CIRCLE_45" function="internal">
        <lane id=":CIRCLE_45_0" index="0" speed="13.89" length="120.03" shape="1465.84,1348.60 1523.07,1243.08"/>
        <lane id=":CIRCLE_45_1" index="1" speed="13.89" length="120.03" shape="1465.84,1348.60 1525.84,1244.68"/>
        <lane id=":CIRCLE_45_2" index="2" speed="13.89" length="120.03" shape="1465.84,1348.60 1528.61,1246.28"/>
    </edge>
    <edge id=":CIRCLE_48" function="internal">
        <lane id=":CIRCLE_48_0" index="0" speed="13.89" length="114.16" shape="1465.84,1348.60 1483.50,1324.82 1505.08,1307.83 1530.58,1297.64 1560.00,1294.24"/>
        <lane id=":CIRCLE_48_1" index="1" speed="13.89" length="110.80" shape="1468.61,1350.20 1485.75,1327.12 1506.69,1310.63 1531.44,1300.74 1560.00,1297.44"/>
    </edge>
    <edge id=":CIRCLE_50" function="internal">
        <lane id=":CIRCLE_50_0" index="0" speed="13.89" length="80.16" shape="1468.61,1350.20 1483.33,1333.21 1500.00,1327.55 1516.67,1333.21 1531.39,1350.20"/>
    </edge>
    <edge id=":CIRCLE_51" function="internal">
        <lane id=":CIRCLE_51_0" index="0" speed="3.65" length="4.67" shape="1468.61,1350.20 1469.91,1349.56 1470.80,1349.62 1471.29,1350.36 1471.39,1351.80"/>
    </edge>
    <edge id=":Ext1_0" function="internal">
        <lane id=":Ext1_0_0" index="0" speed="13.89" length="3.00" shape="2798.50,1294.24 2801.50,1294.24"/>
        <lane id=":Ext1_0_1" index="1" speed="13.89" length="3.00" shape="2798.50,1297.44 2801.50,1297.44"/>
    </edge>
    <edge id=":Ext1_2" function="internal">
        <lane id=":Ext1_2_0" index="0" speed="3.65" length="4.67" shape="2798.50,1297.44 2799.70,1298.24 2800.10,1299.04 2799.70,1299.84 2798.50,1300.64"/>
    </edge>
    <edge id=":Ext2_0" function="internal">
        <lane id=":Ext2_0_0" index="0" speed="13.89" length="3.00" shape="2153.41,2421.17 2154.91,2423.77"/>
        <lane id=":Ext2_0_1" index="1" speed="13.89" length="3.00" shape="2150.64,2422.77 2152.14,2425.37"/>
    </edge>
    <edge id=":Ext2_2" function="internal">
        <lane id=":Ext2_2_0" index="0" speed="3.65" length="4.67" shape="2150.64,2422.77 2150.54,2424.21 2150.05,2424.96 2149.16,2425.01 2147.86,2424.37"/>
    </edge>
    <edge id=":Ext3_0" function="internal">
        <lane id=":Ext3_0_0" index="0" speed="13.89" length="3.00" shape="854.91,2425.97 853.41,2428.57"/>
        <lane id=":Ext3_0_1" index="1" speed="13.89" length="3.00" shape="852.14,2424.37 850.64,2426.97"/>
    </edge>
    <edge id=":Ext3_2" function="internal">
        <lane id=":Ext3_2_0" index="0" speed="3.65" length="4.67" shape="852.14,2424.37 850.84,2425.01 849.95,2424.96 849.46,2424.21 849.36,2422.77"/>
    </edge>
    <edge id=":Ext4_0" function="internal">
        <lane id=":Ext4_0_0" index="0" speed="13.89" length="3.00" shape="201.50,1303.84 198.50,1303.84"/>
        <lane id=":Ext4_0_1" index="1" speed="13.89" length="3.00" shape="201.50,1300.64 198.50,1300.64"/>
    </edge>
    <edge id=":Ext4_2" function="internal">
        <lane id=":Ext4_2_0" index="0" speed="3.65" length="4.67" shape="201.50,1300.64 200.30,1299.84 199.90,1299.04 200.30,1298.24 201.50,1297.44"/>
    </edge>
    <edge id=":Ext5_0" function="internal">
        <lane id=":Ext5_0_0" index="0" speed="13.89" length="3.00" shape="846.59,176.91 845.09,174.31"/>
        <lane id=":Ext5_0_1" index="1" speed="13.89" length="3.00" shape="849.36,175.31 847.86,172.71"/>
    </edge>
    <edge id=":Ext5_2" function="internal">
        <lane id=":Ext5_2_0" index="0" speed="3.65" length="4.67" shape="849.36,175.31 849.46,173.87 849.95,173.12 850.84,173.07 852.14,173.71"/>
    </edge>
    <edge id=":Ext6_0" function="internal">
        <lane id=":Ext6_0_0" index="0" speed="13.89" length="3.00" shape="2145.09,172.11 2146.59,169.51"/>
        <lane id=":Ext6_0_1" index="1" speed="13.89" length="3.00" shape="2147.86,173.71 2149.36,171.11"/>
    </edge>
    <edge id=":Ext6_2" function="internal">
        <lane id=":Ext6_2_0" index="0" speed="3.65" length="4.67" shape="2147.86,173.71 2149.16,173.07 2150.05,173.12 2150.54,173.87 2150.64,175.31"/>
    </edge>
    <edge id=":Int1_0" function="internal">
        <lane id=":Int1_0_0" index="0" speed="8.52" length="9.74" shape="2354.00,1303.84 2351.67,1304.15 2349.58,1305.09 2347.76,1306.66 2346.19,1308.85"/>
    </edge>
    <edge id=":Int1_1" function="internal">
        <lane id=":Int1_1_0" index="0" speed="12.50" length="24.97" shape="2354.00,1303.84 2346.75,1304.77 2340.23,1307.00 2334.77,1309.69 2330.71,1312.03"/>
    </edge>
    <edge id=":Int1_2" function="internal">
        <lane id=":Int1_2_0" index="0" speed="13.89" length="24.80" shape="2354.00,1303.84 2347.68,1304.34 2342.59,1305.44 2337.05,1306.54 2329.37,1307.04"/>
        <lane id=":Int1_2_1" index="1" speed="13.89" length="24.80" shape="2354.00,1300.64 2347.68,1301.14 2342.59,1302.24 2337.05,1303.34 2329.37,1303.84"/>
        <lane id=":Int1_2_2" index="2" speed="13.89" length="24.80" shape="2354.00,1300.64 2329.37,1300.64"/>
    </edge>
    <edge id=":Int1_5" function="internal">
        <lane id=":Int1_5_0" index="0" speed="12.38" length="2.73" shape="2354.00,1300.64 2351.43,1299.72"/>
    </edge>
    <edge id=":Int1_6" function="internal">
        <lane id=":Int1_6_0" index="0" speed="3.65" length="1.44" shape="2354.00,1300.64 2352.80,1299.84"/>
    </edge>
    <edge id=":Int1_13" function="internal">
        <lane id=":Int1_13_0" index="0" speed="12.38" length="18.54" shape="2351.43,1299.72 2351.29,1299.67 2348.08,1296.77 2344.36,1291.94 2340.15,1285.18"/>
    </edge>
    <edge id=":Int1_14" function="internal">
        <lane id=":Int1_14_0" index="0" speed="3.65" length="3.23" shape="2352.80,1299.84 2352.40,1299.04 2352.80,1298.24 2354.00,1297.44"/>
    </edge>
    <edge id=":Int1_7" function="internal">
        <lane id=":Int1_7_0" index="0" speed="7.03" length="15.01" shape="2329.37,1291.04 2335.36,1290.67 2339.15,1289.57 2340.74,1287.74 2340.15,1285.18"/>
    </edge>
    <edge id=":Int1_8" function="internal">
        <lane id=":Int1_8_0" index="0" speed="13.89" length="24.89" shape="2329.37,1291.04 2337.05,1291.54 2342.59,1292.64 2347.68,1293.74 2354.00,1294.24"/>
        <lane id=":Int1_8_1" index="1" speed="13.89" length="24.89" shape="2329.37,1294.24 2337.05,1294.74 2342.59,1295.84 2347.68,1296.94 2354.00,1297.44"/>
    </edge>
    <edge id=":Int1_10" function="internal">
        <lane id=":Int1_10_0" index="0" speed="9.03" length="9.12" shape="2329.37,1297.44 2337.53,1297.89 2338.45,1298.12"/>
    </edge>
    <edge id=":Int1_11" function="internal">
        <lane id=":Int1_11_0" index="0" speed="7.13" length="2.19" shape="2329.37,1297.44 2331.42,1298.20"/>
    </edge>
    <edge id=":Int1_12" function="internal">
        <lane id=":Int1_12_0" index="0" speed="3.65" length="1.44" shape="2329.37,1297.44 2330.57,1298.24"/>
    </edge>
    <edge id=":Int1_15" function="internal">
        <lane id=":Int1_15_0" index="0" speed="9.03" length="16.59" shape="2338.45,1298.12 2344.07,1299.58 2347.46,1303.05 2346.19,1308.85"/>
    </edge>
    <edge id=":Int1_16" function="internal">
        <lane id=":Int1_16_0" index="0" speed="7.13" length="17.71" shape="2331.42,1298.20 2334.00,1299.15 2335.73,1303.21 2334.62,1308.03 2330.71,1312.03"/>
    </edge>
    <edge id=":Int1_17" function="internal">
        <lane id=":Int1_17_0" index="0" speed="3.65" length="3.23" shape="2330.57,1298.24 2330.97,1299.04 2330.57,1299.84 2329.37,1300.64"/>
    </edge>
    <edge id=":Int2_0" function="internal">
        <lane id=":Int2_0_0" index="0" speed="13.89" length="10.59" shape="1922.00,2039.56 1920.02,2037.14 1918.07,2035.96 1916.12,2034.78 1914.15,2032.36"/>
        <lane id=":Int2_0_1" index="1" speed="13.89" length="10.59" shape="1924.77,2037.96 1922.79,2035.54 1920.84,2034.36 1918.89,2033.18 1916.92,2030.76"/>
        <lane id=":Int2_0_2" index="2" speed="13.89" length="10.59" shape="1924.77,2037.96 1919.69,2029.16"/>
    </edge>
    <edge id=":Int2_3" function="internal">
        <lane id=":Int2_3_0" index="0" speed="3.65" length="1.44" shape="1924.77,2037.96 1924.86,2036.52"/>
    </edge>
    <edge id=":Int2_10" function="internal">
        <lane id=":Int2_10_0" index="0" speed="3.65" length="3.23" shape="1924.86,2036.52 1925.35,2035.77 1926.25,2035.72 1927.54,2036.36"/>
    </edge>
    <edge id=":Int2_4" function="internal">
        <lane id=":Int2_4_0" index="0" speed="9.07" length="11.11" shape="1933.08,2024.36 1931.26,2027.86 1930.20,2030.76 1929.88,2033.06 1930.31,2034.76"/>
    </edge>
    <edge id=":Int2_5" function="internal">
        <lane id=":Int2_5_0" index="0" speed="8.49" length="22.52" shape="1933.08,2024.36 1928.35,2031.21 1924.08,2034.56 1920.27,2034.41 1916.92,2030.76"/>
        <lane id=":Int2_5_1" index="1" speed="7.76" length="18.59" shape="1933.08,2024.36 1929.21,2029.91 1925.69,2032.56 1922.52,2032.31 1919.69,2029.16"/>
    </edge>
    <edge id=":Int2_7" function="internal">
        <lane id=":Int2_7_0" index="0" speed="13.89" length="10.81" shape="1928.00,2024.36 1929.11,2027.28 1929.16,2029.56 1929.20,2031.84 1930.31,2034.76"/>
        <lane id=":Int2_7_1" index="1" speed="13.89" length="10.81" shape="1925.23,2025.96 1926.34,2028.88 1926.39,2031.16 1926.43,2033.44 1927.54,2036.36"/>
    </edge>
    <edge id=":Int2_9" function="internal">
        <lane id=":Int2_9_0" index="0" speed="3.65" length="1.44" shape="1922.46,2027.56 1922.37,2029.00"/>
    </edge>
    <edge id=":Int2_11" function="internal">
        <lane id=":Int2_11_0" index="0" speed="3.65" length="3.23" shape="1922.37,2029.00 1921.87,2029.75 1920.98,2029.80 1919.69,2029.16"/>
    </edge>
    <edge id=":Int3_0" function="internal">
        <lane id=":Int3_0_0" index="0" speed="12.50" length="21.76" shape="1094.43,2025.79 1090.74,2027.78 1086.47,2030.37 1082.07,2034.11 1078.00,2039.56"/>
    </edge>
    <edge id=":Int3_1" function="internal">
        <lane id=":Int3_1_0" index="0" speed="11.11" length="31.00" shape="1094.43,2025.79 1085.20,2030.03 1077.54,2031.21 1071.45,2029.32 1066.92,2024.36"/>
    </edge>
    <edge id=":Int3_2" function="internal">
        <lane id=":Int3_2_0" index="0" speed="7.63" length="23.05" shape="1094.43,2025.79 1088.11,2027.46 1082.54,2025.91 1079.38,2021.94 1080.31,2016.36"/>
        <lane id=":Int3_2_1" index="1" speed="6.93" length="18.72" shape="1094.43,2025.79 1089.32,2027.12 1084.83,2025.80 1082.31,2022.52 1083.08,2017.96"/>
    </edge>
    <edge id=":Int3_4" function="internal">
        <lane id=":Int3_4_0" index="0" speed="13.89" length="21.56" shape="1091.40,2022.76 1087.74,2028.09 1084.56,2031.40 1081.45,2034.59 1078.00,2039.56"/>
        <lane id=":Int3_4_1" index="1" speed="13.89" length="21.56" shape="1088.63,2021.16 1084.97,2026.49 1081.79,2029.80 1078.68,2032.99 1075.23,2037.96"/>
    </edge>
    <edge id=":Int3_6" function="internal">
        <lane id=":Int3_6_0" index="0" speed="8.90" length="6.13" shape="1085.85,2019.56 1082.20,2024.48"/>
    </edge>
    <edge id=":Int3_7" function="internal">
        <lane id=":Int3_7_0" index="0" speed="3.65" length="1.44" shape="1085.85,2019.56 1084.56,2020.20"/>
    </edge>
    <edge id=":Int3_13" function="internal">
        <lane id=":Int3_13_0" index="0" speed="8.90" length="18.79" shape="1082.20,2024.48 1081.37,2025.60 1076.39,2029.01 1071.40,2028.90 1066.92,2024.36"/>
    </edge>
    <edge id=":Int3_14" function="internal">
        <lane id=":Int3_14_0" index="0" speed="3.65" length="3.23" shape="1084.56,2020.20 1083.67,2020.15 1083.18,2019.40 1083.08,2017.96"/>
    </edge>
    <edge id=":Int3_8" function="internal">
        <lane id=":Int3_8_0" index="0" speed="9.07" length="11.11" shape="1069.69,2034.76 1070.12,2033.06 1069.80,2030.76 1068.74,2027.86 1066.92,2024.36"/>
    </edge>
    <edge id=":Int3_9" function="internal">
        <lane id=":Int3_9_0" index="0" speed="13.89" length="21.45" shape="1069.69,2034.76 1072.27,2029.29 1073.48,2025.00 1074.75,2020.59 1077.54,2014.76"/>
        <lane id=":Int3_9_1" index="1" speed="13.89" length="21.45" shape="1072.46,2036.36 1075.04,2030.89 1076.25,2026.60 1077.52,2022.19 1080.31,2016.36"/>
        <lane id=":Int3_9_2" index="2" speed="13.89" length="21.45" shape="1072.46,2036.36 1083.08,2017.96"/>
    </edge>
    <edge id=":Int3_12" function="internal">
        <lane id=":Int3_12_0" index="0" speed="3.65" length="1.44" shape="1072.46,2036.36 1073.75,2035.72"/>
    </edge>
    <edge id=":Int3_15" function="internal">
        <lane id=":Int3_15_0" index="0" speed="3.65" length="3.23" shape="1073.75,2035.72 1074.65,2035.77 1075.14,2036.52 1075.23,2037.96"/>
    </edge>
    <edge id=":Int4_0" function="internal">
        <lane id=":Int4_0_0" index="0" speed="10.17" length="14.14" shape="656.16,1312.90 653.56,1308.94 651.00,1306.11 648.48,1304.41 646.00,1303.84"/>
    </edge>
    <edge id=":Int4_1" function="internal">
        <lane id=":Int4_1_0" index="0" speed="10.18" length="33.09" shape="656.16,1312.90 654.34,1305.22 658.47,1300.49 666.66,1298.10 677.03,1297.44"/>
    </edge>
    <edge id=":Int4_2" function="internal">
        <lane id=":Int4_2_0" index="0" speed="13.89" length="31.23" shape="677.03,1307.04 667.26,1306.54 659.64,1305.44 652.96,1304.34 646.00,1303.84"/>
        <lane id=":Int4_2_1" index="1" speed="13.89" length="31.23" shape="677.03,1303.84 667.26,1303.34 659.64,1302.24 652.96,1301.14 646.00,1300.64"/>
    </edge>
    <edge id=":Int4_4" function="internal">
        <lane id=":Int4_4_0" index="0" speed="3.65" length="1.44" shape="677.03,1300.64 675.83,1299.84"/>
    </edge>
    <edge id=":Int4_11" function="internal">
        <lane id=":Int4_11_0" index="0" speed="3.65" length="3.23" shape="675.83,1299.84 675.43,1299.04 675.83,1298.24 677.03,1297.44"/>
    </edge>
    <edge id=":Int4_5" function="internal">
        <lane id=":Int4_5_0" index="0" speed="5.53" length="11.20" shape="675.69,1286.05 672.54,1288.24 671.71,1289.79 673.21,1290.73 677.03,1291.04"/>
    </edge>
    <edge id=":Int4_6" function="internal">
        <lane id=":Int4_6_0" index="0" speed="12.50" length="33.40" shape="675.69,1286.05 670.63,1289.39 662.97,1294.28 654.25,1298.71 646.00,1300.64"/>
    </edge>
    <edge id=":Int4_7" function="internal">
        <lane id=":Int4_7_0" index="0" speed="13.89" length="31.16" shape="646.00,1294.24 652.96,1293.74 659.64,1292.64 667.26,1291.54 677.03,1291.04"/>
        <lane id=":Int4_7_1" index="1" speed="13.89" length="31.16" shape="646.00,1297.44 652.96,1296.94 659.64,1295.84 667.26,1294.74 677.03,1294.24"/>
        <lane id=":Int4_7_2" index="2" speed="13.89" length="31.16" shape="646.00,1297.44 677.03,1297.44"/>
    </edge>
    <edge id=":Int4_10" function="internal">
        <lane id=":Int4_10_0" index="0" speed="3.65" length="1.44" shape="646.00,1297.44 647.20,1298.24"/>
    </edge>
    <edge id=":Int4_12" function="internal">
        <lane id=":Int4_12_0" index="0" speed="3.65" length="3.23" shape="647.20,1298.24 647.60,1299.04 647.20,1299.84 646.00,1300.64"/>
    </edge>
    <edge id=":Int5_0" function="internal">
        <lane id=":Int5_0_0" index="0" speed="13.89" length="14.03" shape="1074.69,578.38 1073.09,574.61 1072.69,571.72 1072.29,568.83 1070.69,565.06"/>
        <lane id=":Int5_0_1" index="1" speed="13.89" length="14.03" shape="1077.46,576.78 1075.86,573.01 1075.46,570.12 1075.07,567.23 1073.46,563.46"/>
    </edge>
    <edge id=":Int5_2" function="internal">
        <lane id=":Int5_2_0" index="0" speed="3.65" length="1.44" shape="1080.23,575.18 1080.33,573.74"/>
    </edge>
    <edge id=":Int5_9" function="internal">
        <lane id=":Int5_9_0" index="0" speed="3.65" length="3.23" shape="1080.33,573.74 1080.82,573.00 1081.71,572.94 1083.00,573.58"/>
    </edge>
    <edge id=":Int5_3" function="internal">
        <lane id=":Int5_3_0" index="0" speed="5.67" length="9.24" shape="1091.93,564.52 1089.18,564.89 1087.70,565.99 1087.49,567.82 1088.55,570.38"/>
    </edge>
    <edge id=":Int5_4" function="internal">
        <lane id=":Int5_4_0" index="0" speed="11.59" length="18.57" shape="1091.93,564.52 1084.08,564.45 1078.39,564.25 1074.85,563.92 1073.46,563.46"/>
    </edge>
    <edge id=":Int5_5" function="internal">
        <lane id=":Int5_5_0" index="0" speed="13.89" length="13.87" shape="1079.00,560.26 1081.47,563.53 1083.78,565.32 1086.08,567.11 1088.55,570.38"/>
        <lane id=":Int5_5_1" index="1" speed="13.89" length="13.87" shape="1076.23,561.86 1078.70,565.13 1081.00,566.92 1083.31,568.71 1085.78,571.98"/>
        <lane id=":Int5_5_2" index="2" speed="13.89" length="13.87" shape="1076.23,561.86 1083.00,573.58"/>
    </edge>
    <edge id=":Int5_8" function="internal">
        <lane id=":Int5_8_0" index="0" speed="3.65" length="1.44" shape="1076.23,561.86 1076.14,563.30"/>
    </edge>
    <edge id=":Int5_10" function="internal">
        <lane id=":Int5_10_0" index="0" speed="3.65" length="3.23" shape="1076.14,563.30 1075.65,564.04 1074.75,564.10 1073.46,563.46"/>
    </edge>
    <edge id=":Int6_0" function="internal">
        <lane id=":Int6_0_0" index="0" speed="8.14" length="20.60" shape="1932.08,578.38 1929.96,576.93 1926.97,578.44 1923.12,582.90 1918.41,590.33"/>
    </edge>
    <edge id=":Int6_1" function="internal">
        <lane id=":Int6_1_0" index="0" speed="11.11" length="34.78" shape="1932.08,578.38 1927.26,573.42 1920.45,571.82 1911.67,573.57 1900.91,578.68"/>
    </edge>
    <edge id=":Int6_2" function="internal">
        <lane id=":Int6_2_0" index="0" speed="11.11" length="24.16" shape="1932.08,578.38 1927.92,572.32 1923.46,567.99 1918.69,565.39 1913.61,564.52"/>
    </edge>
    <edge id=":Int6_3" function="internal">
        <lane id=":Int6_3_0" index="0" speed="11.59" length="18.57" shape="1932.08,578.38 1928.21,571.55 1925.54,566.52 1924.06,563.29 1923.77,561.86"/>
    </edge>
    <edge id=":Int6_4" function="internal">
        <lane id=":Int6_4_0" index="0" speed="13.89" length="27.49" shape="1929.31,565.06 1926.47,570.98 1924.57,576.47 1922.32,582.57 1918.41,590.33"/>
        <lane id=":Int6_4_1" index="1" speed="13.89" length="27.49" shape="1926.54,563.46 1923.69,569.38 1921.80,574.87 1919.54,580.97 1915.64,588.73"/>
        <lane id=":Int6_4_2" index="2" speed="13.89" length="27.49" shape="1926.54,563.46 1912.87,587.13"/>
    </edge>
    <edge id=":Int6_7" function="internal">
        <lane id=":Int6_7_0" index="0" speed="12.50" length="2.98" shape="1926.54,563.46 1924.46,565.60"/>
    </edge>
    <edge id=":Int6_8" function="internal">
        <lane id=":Int6_8_0" index="0" speed="9.79" length="1.36" shape="1926.54,563.46 1925.50,563.92 1925.28,563.95"/>
    </edge>
    <edge id=":Int6_9" function="internal">
        <lane id=":Int6_9_0" index="0" speed="3.65" length="1.44" shape="1926.54,563.46 1925.25,564.10"/>
    </edge>
    <edge id=":Int6_15" function="internal">
        <lane id=":Int6_15_0" index="0" speed="12.50" length="27.23" shape="1924.46,565.60 1921.03,569.14 1913.47,573.38 1906.04,576.46 1900.91,578.68"/>
    </edge>
    <edge id=":Int6_16" function="internal">
        <lane id=":Int6_16_0" index="0" speed="9.79" length="11.69" shape="1925.28,563.95 1923.00,564.25 1919.04,564.45 1913.61,564.52"/>
    </edge>
    <edge id=":Int6_17" function="internal">
        <lane id=":Int6_17_0" index="0" speed="3.65" length="3.23" shape="1925.25,564.10 1924.35,564.04 1923.86,563.30 1923.77,561.86"/>
    </edge>
    <edge id=":Int6_10" function="internal">
        <lane id=":Int6_10_0" index="0" speed="5.53" length="11.20" shape="1904.56,582.33 1906.20,578.86 1906.14,577.10 1904.37,577.04 1900.91,578.68"/>
    </edge>
    <edge id=":Int6_11" function="internal">