<routes>
        <vType id="car" accel="2.6" decel="4.5" length="5" maxSpeed="13.89" color="yellow"/>
        <flow id="f1" type="car" begin="0" end="3600" vehsPerHour="600" from="Ext1_to_Int1" to="Ext3_to_Sink3" via="BP_1_3"/>
        <flow id="f2" type="car" begin="0" end="3600" vehsPerHour="600" from="Ext6_to_Int6" to="Ext4_to_Sink4" via="BP_6_4"/>
        <flow id="f3" type="car" begin="0" end="3600" vehsPerHour="800" from="Ext2_to_Int2" to="Ext5_to_Sink5"/>
    </routes>