<routes>
    <vType id="car" accel="2.6" decel="4.5" length="5" maxSpeed="13.89" guiShape="passenger" color="yellow"/>
    <flow id="f_main" type="car" begin="0" end="3600" vehsPerHour="800" from="W_to_1" to="4_to_E"/>
    <flow id="f_bypass_n2" type="car" begin="0" end="3600" vehsPerHour="600" from="Bypass_W_to_N2" to="Int2_to_S2"/>
    <flow id="f_bypass_s4" type="car" begin="0" end="3600" vehsPerHour="500" from="S2_to_Int2" to="Int4_to_N4" via="Bypass_S2_to_S4"/>
    </routes>