<routes>
    <vType id="car" accel="2.6" decel="4.5" length="5" maxSpeed="13.89" guiShape="passenger" color="yellow"/>
    <!-- Demand recalibrated 2026-05-29 (PLAN.md R5). At 1900 veh/h the 3-TL net
         was oversaturated under fixed-time (wait ~343 s, mean queue ~55) and RL
         just gridlocked it worse. Measured knee: queue 4/7/18/55 at 0.3/0.5/0.7/1.0
         of the old demand. Scaled to 0.7 (~1330 veh/h, mean queue ~18): congested
         and learnable, FT stable so RL has clear room to win. -->
    <flow id="f_main" type="car" begin="0" end="3600" vehsPerHour="560" from="W_to_1" to="4_to_E"/>
    <flow id="f_bypass_n2" type="car" begin="0" end="3600" vehsPerHour="420" from="Bypass_W_to_N2" to="Int2_to_S2"/>
    <flow id="f_bypass_s4" type="car" begin="0" end="3600" vehsPerHour="350" from="S2_to_Int2" to="Int4_to_N4" via="Bypass_S2_to_S4"/>
    </routes>