<?xml version='1.0' encoding='utf-8'?>
<routes xmlns:xsi="http://www.w3.org/2001/XMLSchema-instance" xsi:noNamespaceSchemaLocation="http://sumo.dlr.de/xsd/routes_file.xsd">
    <vType id="car" accel="2.6" decel="4.5" length="5" maxSpeed="13.89" guiShape="passenger" color="yellow" />
    <vehicle id="v_0" type="car" depart="0.67" departLane="free" departSpeed="random">
        <route edges="W_to_1 4_to_E" />
    </vehicle>
    <vehicle id="v_1422" type="car" depart="1.68" departLane="free" departSpeed="random">
        <route edges="S2_to_Int2 Bypass_S2_to_S4 Int4_to_N4" />
    </vehicle>
    <vehicle id="v_1" type="car" depart="3.67" departLane="free" departSpeed="random">
        <route edges="W_to_1 4_to_E" />
    </vehicle>
    <vehicle id="v_1423" type="car" depart="7.33" departLane="free" departSpeed="random">
        <route edges="S2_to_Int2 Bypass_S2_to_S4 Int4_to_N4" />
    </vehicle>
    <vehicle id="v_1424" type="car" depart="9.98" departLane="free" departSpeed="random">
        <route edges="S2_to_Int2 Bypass_S2_to_S4 Int4_to_N4" />
    </vehicle>
    <vehicle id="v_815" type="car" depart="11.23" departLane="free" departSpeed="random">
        <route edges="Bypass_W_to_N2 Int2_to_S2" />
    </vehicle>
    <vehicle id="v_2" type="car" depart="11.45" departLane="free" departSpeed="random">
        <route edges="W_to_1 4_to_E" />
    </vehicle>
    <vehicle id="v_3" type="car" depart="12.67" departLane="free" departSpeed="random">
        <route edges="W_to_1 4_to_E" />
    </vehicle>
    <vehicle id="v_816" type="car" depart="13.73" departLane="free" departSpeed="random">
        <route edges="Bypass_W_to_N2 Int2_to_S2" />
    </vehicle>
    <vehicle id="v_1425" type="car" depart="15.56" departLane="free" departSpeed="random">
        <route edges="S2_to_Int2 Bypass_S2_to_S4 Int4_to_N4" />
    </vehicle>
    <vehicle id="v_817" type="car" depart="19.74" departLane="free" departSpeed="random">
        <route edges="Bypass_W_to_N2 Int2_to_S2" />
    </vehicle>
    <vehicle id="v_1426" type="car" depart="20.40" departLane="free" departSpeed="random">
        <route edges="S2_to_Int2 Bypass_S2_to_S4 Int4_to_N4" />
    </vehicle>
    <vehicle id="v_1427" type="car" depart="21.02" departLane="free" departSpeed="random">
        <route edges="S2_to_Int2 Bypass_S2_to_S4 Int4_to_N4" />
    </vehicle>
    <vehicle id="v_4" type="car" depart="21.20" departLane="free" departSpeed="random">
        <route edges="W_to_1 4_to_E" />
    </vehicle>
    <vehicle id="v_818" type="car" depart="21.39" departLane="free" departSpeed="random">
        <route edges="Bypass_W_to_N2 Int2_to_S2" />
    </vehicle>
    <vehicle id="v_5" type="car" depart="22.36" departLane="free" departSpeed="random">
        <route edges="W_to_1 4_to_E" />
    </vehicle>
    <vehicle id="v_6" type="car" depart="23.14" departLane="free" departSpeed="random">
        <route edges="W_to_1 4_to_E" />
    </vehicle>
    <vehicle id="v_7" type="car" depart="28.74" departLane="free" departSpeed="random">
        <route edges="W_to_1 4_to_E" />
    </vehicle>
    <vehicle id="v_1428" type="car" depart="29.60" departLane="free" departSpeed="random">
        <route edges="S2_to_Int2 Bypass_S2_to_S4 Int4_to_N4" />
    </vehicle>
    <vehicle id="v_8" type="car" depart="30.18" departLane="free" departSpeed="random">
        <route edges="W_to_1 4_to_E" />
    </vehicle>
    <vehicle id="v_9" type="car" depart="30.59" departLane="free" departSpeed="random">
        <route edges="W_to_1 4_to_E" />
    </vehicle>
    <vehicle id="v_819" type="car" depart="32.23" departLane="free" departSpeed="random">
        <route edges="Bypass_W_to_N2 Int2_to_S2" />
    </vehicle>
    <vehicle id="v_1429" type="car" depart="32.69" departLane="free" departSpeed="random">
        <route edges="S2_to_Int2 Bypass_S2_to_S4 Int4_to_N4" />
    </vehicle>
    <vehicle id="v_820" type="car" depart="33.54" departLane="free" departSpeed="random">
        <route edges="Bypass_W_to_N2 Int2_to_S2" />
    </vehicle>
    <vehicle id="v_821" type="car" depart="35.14" departLane="free" departSpeed="random">
        <route edges="Bypass_W_to_N2 Int2_to_S2" />
    </vehicle>
    <vehicle id="v_822" type="car" depart="38.77" departLane="free" departSpeed="random">
        <route edges="Bypass_W_to_N2 Int2_to_S2" />
    </vehicle>
    <vehicle id="v_1430" type="car" depart="41.42" departLane="free" departSpeed="random">
        <route edges="S2_to_Int2 Bypass_S2_to_S4 Int4_to_N4" />
    </vehicle>
    <vehicle id="v_1431" type="car" depart="42.53" departLane="free" departSpeed="random">
        <route edges="S2_to_Int2 Bypass_S2_to_S4 Int4_to_N4" />
    </vehicle>
    <vehicle id="v_1432" type="car" depart="43.15" departLane="free" departSpeed="random">
        <route edges="S2_to_Int2 Bypass_S2_to_S4 Int4_to_N4" />
    </vehicle>
    <vehicle id="v_1433" type="car" depart="48.62" departLane="free" departSpeed="random">
        <route edges="S2_to_Int2 Bypass_S2_to_S4 Int4_to_N4" />
    </vehicle>
    <vehicle id="v_1434" type="car" depart="49.46" departLane="free" departSpeed="random">
        <route edges="S2_to_Int2 Bypass_S2_to_S4 Int4_to_N4" />
    </vehicle>
    <vehicle id="v_823" type="car" depart="49.68" departLane="free" departSpeed="random">
        <route edges="Bypass_W_to_N2 Int2_to_S2" />
    </vehicle>
    <vehicle id="v_1435" type="car" depart="50.53" departLane="free" departSpeed="random">
        <route edges="S2_to_Int2 Bypass_S2_to_S4 Int4_to_N4" />
    </vehicle>
    <vehicle id="v_10" type="car" depart="52.11" departLane="free" departSpeed="random">
        <route edges="W_to_1 4_to_E" />
    </vehicle>
    <vehicle id="v_11" type="car" depart="53.62" departLane="free" departSpeed="random">
        <route edges="W_to_1 4_to_E" />
    </vehicle>
    <vehicle id="v_12" type="car" depart="54.15" departLane="free" departSpeed="random">
        <route edges="W_to_1 4_to_E" />
    </vehicle>
    <vehicle id="v_13" type="car" depart="55.06" departLane="free" departSpeed="random">
        <route edges="W_to_1 4_to_E" />
    </vehicle>
    <vehicle id="v_1436" type="car" depart="62.08" departLane="free" departSpeed="random">
        <route edges="S2_to_Int2 Bypass_S2_to_S4 Int4_to_N4" />
    </vehicle>
    <vehicle id="v_824" type="car" depart="65.63" departLane="free" departSpeed="random">
        <route edges="Bypass_W_to_N2 Int2_to_S2" />
    </vehicle>
    <vehicle id="v_825" type="car" depart="67.87" departLane="free" departSpeed="random">
        <route edges="Bypass_W_to_N2 Int2_to_S2" />
    </vehicle>
    <vehicle id="v_826" type="car" depart="71.13" departLane="free" departSpeed="random">
        <route edges="Bypass_W_to_N2 Int2_to_S2" />
    </vehicle>
    <vehicle id="v_827" type="car" depart="76.09" departLane="free" departSpeed="random">
        <route edges="Bypass_W_to_N2 Int2_to_S2" />
    </vehicle>
    <vehicle id="v_14" type="car" depart="80.05" departLane="free" departSpeed="random">
        <route edges="W_to_1 4_to_E" />
    </vehicle>
    <vehicle id="v_15" type="car" depart="80.37" departLane="free" departSpeed="random">
        <route edges="W_to_1 4_to_E" />
    </vehicle>
    <vehicle id="v_1437" type="car" depart="81.48" departLane="free" departSpeed="random">
        <route edges="S2_to_Int2 Bypass_S2_to_S4 Int4_to_N4" />
    </vehicle>
    <vehicle id="v_1438" type="car" depart="81.72" departLane="free" departSpeed="random">
        <route edges="S2_to_Int2 Bypass_S2_to_S4 Int4_to_N4" />
    </vehicle>
    <vehicle id="v_16" type="car" depart="85.28" departLane="free" departSpeed="random">
        <route edges="W_to_1 4_to_E" />
    </vehicle>
    <vehicle id="v_828" type="car" depart="85.34" departLane="free" departSpeed="random">
        <route edges="Bypass_W_to_N2 Int2_to_S2" />
    </vehicle>
    <vehicle id="v_1439" type="car" depart="85.44" departLane="free" departSpeed="random">
        <route edges="S2_to_Int2 Bypass_S2_to_S4 Int4_to_N4" />
    </vehicle>
    <vehicle id="v_17" type="car" depart="86.99" departLane="free" departSpeed="random">
        <route edges="W_to_1 4_to_E" />
    </vehicle>
    <vehicle id="v_1440" type="car" depart="88.95" departLane="free" departSpeed="random">
        <route edges="S2_to_Int2 Bypass_S2_to_S4 Int4_to_N4" />
    </vehicle>
    <vehicle id="v_18" type="car" depart="89.16" departLane="free" departSpeed="random">
        <route edges="W_to_1 4_to_E" />
    </vehicle>
    <vehicle id="v_19" type="car" depart="91.36" departLane="free" departSpeed="random">
        <route edges="W_to_1 4_to_E" />
    </vehicle>
    <vehicle id="v_829" type="car" depart="92.35" departLane="free" departSpeed="random">
        <route edges="Bypass_W_to_N2 Int2_to_S2" />
    </vehicle>
    <vehicle id="v_1441" type="car" depart="95.75" departLane="free" departSpeed="random">
        <route edges="S2_to_Int2 Bypass_S2_to_S4 Int4_to_N4" />
    </vehicle>
    <vehicle id="v_20" type="car" depart="96.47" departLane="free" departSpeed="random">
        <route edges="W_to_1 4_to_E" />
    </vehicle>
    <vehicle id="v_1442" type="car" depart="96.62" departLane="free" departSpeed="random">
        <route edges="S2_to_Int2 Bypass_S2_to_S4 Int4_to_N4" />
    </vehicle>
    <vehicle id="v_21" type="car" depart="99.77" departLane="free" departSpeed="random">
        <route edges="W_to_1 4_to_E" />
    </vehicle>
    <vehicle id="v_22" type="car" depart="101.89" departLane="free" departSpeed="random">
        <route edges="W_to_1 4_to_E" />
    </vehicle>
    <vehicle id="v_1443" type="car" depart="108.15" departLane="free" departSpeed="random">
        <route edges="S2_to_Int2 Bypass_S2_to_S4 Int4_to_N4" />
    </vehicle>
    <vehicle id="v_23" type="car" depart="109.06" departLane="free" departSpeed="random">
        <route edges="W_to_1 4_to_E" />
    </vehicle>
    <vehicle id="v_830" type="car" depart="109.35" departLane="free" departSpeed="random">
        <route edges="Bypass_W_to_N2 Int2_to_S2" />
    </vehicle>
    <vehicle id="v_24" type="car" depart="111.74" departLane="free" departSpeed="random">
        <route edges="W_to_1 4_to_E" />
    </vehicle>
    <vehicle id="v_831" type="car" depart="111.99" departLane="free" departSpeed="random">
        <route edges="Bypass_W_to_N2 Int2_to_S2" />
    </vehicle>
    <vehicle id="v_25" type="car" depart="117.19" departLane="free" departSpeed="random">
        <route edges="W_to_1 4_to_E" />
    </vehicle>
    <vehicle id="v_26" type="car" depart="123.61" departLane="free" departSpeed="random">
        <route edges="W_to_1 4_to_E" />
    </vehicle>
    <vehicle id="v_1444" type="car" depart="124.46" departLane="free" departSpeed="random">
        <route edges="S2_to_Int2 Bypass_S2_to_S4 Int4_to_N4" />
    </vehicle>
    <vehicle id="v_832" type="car" depart="125.09" departLane="free" departSpeed="random">
        <route edges="Bypass_W_to_N2 Int2_to_S2" />
    </vehicle>
    <vehicle id="v_27" type="car" depart="125.15" departLane="free" departSpeed="random">
        <route edges="W_to_1 4_to_E" />
    </vehicle>
    <vehicle id="v_28" type="car" depart="133.84" departLane="free" departSpeed="random">
        <route edges="W_to_1 4_to_E" />
    </vehicle>
    <vehicle id="v_833" type="car" depart="134.18" departLane="free" departSpeed="random">
        <route edges="Bypass_W_to_N2 Int2_to_S2" />
    </vehicle>
    <vehicle id="v_1445" type="car" depart="135.92" departLane="free" departSpeed="random">
        <route edges="S2_to_Int2 Bypass_S2_to_S4 Int4_to_N4" />
    </vehicle>
    <vehicle id="v_834" type="car" depart="136.63" departLane="free" departSpeed="random">
        <route edges="Bypass_W_to_N2 Int2_to_S2" />
    </vehicle>
    <vehicle id="v_29" type="car" depart="138.54" departLane="free" departSpeed="random">
        <route edges="W_to_1 4_to_E" />
    </vehicle>
    <vehicle id="v_835" type="car" depart="140.34" departLane="free" departSpeed="random">
        <route edges="Bypass_W_to_N2 Int2_to_S2" />
    </vehicle>
    <vehicle id="v_1446" type="car" depart="141.02" departLane="free" departSpeed="random">
        <route edges="S2_to_Int2 Bypass_S2_to_S4 Int4_to_N4" />
    </vehicle>
    <vehicle id="v_836" type="car" depart="141.27" departLane="free" departSpeed="random">
        <route edges="Bypass_W_to_N2 Int2_to_S2" />
    </vehicle>
    <vehicle id="v_30" type="car" depart="142.23" departLane="free" departSpeed="random">
        <route edges="W_to_1 4_to_E" />
    </vehicle>
    <vehicle id="v_31" type="car" depart="143.02" departLane="free" departSpeed="random">
        <route edges="W_to_1 4_to_E" />
    </vehicle>
    <vehicle id="v_32" type="car" depart="145.09" departLane="free" departSpeed="random">
        <route edges="W_to_1 4_to_E" />
    </vehicle>
    <vehicle id="v_33" type="car" depart="145.66" departLane="free" departSpeed="random">
        <route edges="W_to_1 4_to_E" />
    </vehicle>
    <vehicle id="v_837" type="car" depart="145.74" departLane="free" departSpeed="random">
        <route edges="Bypass_W_to_N2 Int2_to_S2" />
    </vehicle>
    <vehicle id="v_1447" type="car" depart="149.90" departLane="free" departSpeed="random">
        <route edges="S2_to_Int2 Bypass_S2_to_S4 Int4_to_N4" />
    </vehicle>
    <vehicle id="v_1448" type="car" depart="160.22" departLane="free" departSpeed="random">
        <route edges="S2_to_Int2 Bypass_S2_to_S4 Int4_to_N4" />
    </vehicle>
    <vehicle id="v_1449" type="car" depart="160.49" departLane="free" departSpeed="random">
        <route edges="S2_to_Int2 Bypass_S2_to_S4 Int4_to_N4" />
    </vehicle>
    <vehicle id="v_34" type="car" depart="167.15" departLane="free" departSpeed="random">
        <route edges="W_to_1 4_to_E" />
    </vehicle>
    <vehicle id="v_838" type="car" depart="168.72" departLane="free" departSpeed="random">
        <route edges="Bypass_W_to_N2 Int2_to_S2" />
    </vehicle>
    <vehicle id="v_35" type="car" depart="170.55" departLane="free" departSpeed="random">
        <route edges="W_to_1 4_to_E" />
    </vehicle>
    <vehicle id="v_839" type="car" depart="171.17" departLane="free" departSpeed="random">
        <route edges="Bypass_W_to_N2 Int2_to_S2" />
    </vehicle>
    <vehicle id="v_840" type="car" depart="174.02" departLane="free" departSpeed="random">
        <route edges="Bypass_W_to_N2 Int2_to_S2" />
    </vehicle>
    <vehicle id="v_1450" type="car" depart="176.11" departLane="free" departSpeed="random">
        <route edges="S2_to_Int2 Bypass_S2_to_S4 Int4_to_N4" />
    </vehicle>
    <vehicle id="v_841" type="car" depart="179.65" departLane="free" departSpeed="random">
        <route edges="Bypass_W_to_N2 Int2_to_S2" />
    </vehicle>
    <vehicle id="v_1451" type="car" depart="179.65" departLane="free" departSpeed="random">
        <route edges="S2_to_Int2 Bypass_S2_to_S4 Int4_to_N4" />
    </vehicle>
    <vehicle id="v_842" type="car" depart="180.57" departLane="free" departSpeed="random">
        <route edges="Bypass_W_to_N2 Int2_to_S2" />
    </vehicle>
    <vehicle id="v_36" type="car" depart="186.62" departLane="free" departSpeed="random">
        <route edges="W_to_1 4_to_E" />
    </vehicle>
    <vehicle id="v_1452" type="car" depart="190.39" departLane="free" departSpeed="random">
        <route edges="S2_to_Int2 Bypass_S2_to_S4 Int4_to_N4" />
    </vehicle>
    <vehicle id="v_843" type="car" depart="192.02" departLane="free" departSpeed="random">
        <route edges="Bypass_W_to_N2 Int2_to_S2" />
    </vehicle>
    <vehicle id="v_844" type="car" depart="197.49" departLane="free" departSpeed="random">
        <route edges="Bypass_W_to_N2 Int2_to_S2" />
    </vehicle>
    <vehicle id="v_37" type="car" depart="205.37" departLane="free" departSpeed="random">
        <route edges="W_to_1 4_to_E" />
    </vehicle>
    <vehicle id="v_845" type="car" depart="207.23" departLane="free" departSpeed="random">
        <route edges="Bypass_W_to_N2 Int2_to_S2" />
    </vehicle>
    <vehicle id="v_1453" type="car" depart="213.29" departLane="free" departSpeed="random">
        <route edges="S2_to_Int2 Bypass_S2_to_S4 Int4_to_N4" />
    </vehicle>
    <vehicle id="v_1454" type="car" depart="213.33" departLane="free" departSpeed="random">
        <route edges="S2_to_Int2 Bypass_S2_to_S4 Int4_to_N4" />
    </vehicle>
    <vehicle id="v_38" type="car" depart="213.60" departLane="free" departSpeed="random">
        <route edges="W_to_1 4_to_E" />
    </vehicle>
    <vehicle id="v_846" type="car" depart="215.64" departLane="free" departSpeed="random">
        <route edges="Bypass_W_to_N2 Int2_to_S2" />
    </vehicle>
    <vehicle id="v_847" type="car" depart="217.52" departLane="free" departSpeed="random">
        <route edges="Bypass_W_to_N2 Int2_to_S2" />
    </vehicle>
    <vehicle id="v_848" type="car" depart="220.25" departLane="free" departSpeed="random">
        <route edges="Bypass_W_to_N2 Int2_to_S2" />
    </vehicle>
    <vehicle id="v_1455" type="car" depart="220.87" departLane="free" departSpeed="random">
        <route edges="S2_to_Int2 Bypass_S2_to_S4 Int4_to_N4" />
    </vehicle>
    <vehicle id="v_849" type="car" depart="222.50" departLane="free" departSpeed="random">
        <route edges="Bypass_W_to_N2 Int2_to_S2" />
    </vehicle>
    <vehicle id="v_1456" type="car" depart="222.68" departLane="free" departSpeed="random">
        <route edges="S2_to_Int2 Bypass_S2_to_S4 Int4_to_N4" />
    </vehicle>
    <vehicle id="v_850" type="car" depart="223.93" departLane="free" departSpeed="random">
        <route edges="Bypass_W_to_N2 Int2_to_S2" />
    </vehicle>
    <vehicle id="v_851" type="car" depart="226.49" departLane="free" departSpeed="random">
        <route edges="Bypass_W_to_N2 Int2_to_S2" />
    </vehicle>
    <vehicle id="v_1457" type="car" depart="226.62" departLane="free" departSpeed="random">
        <route edges="S2_to_Int2 Bypass_S2_to_S4 Int4_to_N4" />
    </vehicle>
    <vehicle id="v_852" type="car" depart="228.81" departLane="free" departSpeed="random">
        <route edges="Bypass_W_to_N2 Int2_to_S2" />
    </vehicle>
    <vehicle id="v_853" type="car" depart="229.22" departLane="free" departSpeed="random">
        <route edges="Bypass_W_to_N2 Int2_to_S2" />
    </vehicle>
    <vehicle id="v_39" type="car" depart="230.87" departLane="free" departSpeed="random">
        <route edges="W_to_1 4_to_E" />
    </vehicle>
    <vehicle id="v_854" type="car" depart="231.03" departLane="free" departSpeed="random">
        <route edges="Bypass_W_to_N2 Int2_to_S2" />
    </vehicle>
    <vehicle id="v_1458" type="car" depart="233.14" departLane="free" departSpeed="random">
        <route edges="S2_to_Int2 Bypass_S2_to_S4 Int4_to_N4" />
    </vehicle>
    <vehicle id="v_40" type="car" depart="236.30" departLane="free" departSpeed="random">
        <route edges="W_to_1 4_to_E" />
    </vehicle>
    <vehicle id="v_1459" type="car" depart="241.59" departLane="free" departSpeed="random">
        <route edges="S2_to_Int2 Bypass_S2_to_S4 Int4_to_N4" />
    </vehicle>
    <vehicle id="v_41" type="car" depart="243.98" departLane="free" departSpeed="random">
        <route edges="W_to_1 4_to_E" />
    </vehicle>
    <vehicle id="v_42" type="car" depart="244.09" departLane="free" departSpeed="random">
        <route edges="W_to_1 4_to_E" />
    </vehicle>
    <vehicle id="v_43" type="car" depart="253.26" departLane="free" departSpeed="random">
        <route edges="W_to_1 4_to_E" />
    </vehicle>
    <vehicle id="v_44" type="car" depart="255.61" departLane="free" departSpeed="random">
        <route edges="W_to_1 4_to_E" />
    </vehicle>
    <vehicle id="v_45" type="car" depart="255.79" departLane="free" departSpeed="random">
        <route edges="W_to_1 4_to_E" />
    </vehicle>
    <vehicle id="v_46" type="car" depart="257.35" departLane="free" departSpeed="random">
        <route edges="W_to_1 4_to_E" />
    </vehicle>
    <vehicle id="v_855" type="car" depart="264.03" departLane="free" departSpeed="random">
        <route edges="Bypass_W_to_N2 Int2_to_S2" />
    </vehicle>
    <vehicle id="v_47" type="car" depart="265.83" departLane="free" departSpeed="random">
        <route edges="W_to_1 4_to_E" />
    </vehicle>
    <vehicle id="v_1460" type="car" depart="270.23" departLane="free" departSpeed="random">
        <route edges="S2_to_Int2 Bypass_S2_to_S4 Int4_to_N4" />
    </vehicle>
    <vehicle id="v_48" type="car" depart="271.36" departLane="free" departSpeed="random">
        <route edges="W_to_1 4_to_E" />
    </vehicle>
    <vehicle id="v_49" type="car" depart="272.29" departLane="free" departSpeed="random">
        <route edges="W_to_1 4_to_E" />
    </vehicle>
    <vehicle id="v_1461" type="car" depart="272.32" departLane="free" departSpeed="random">
        <route edges="S2_to_Int2 Bypass_S2_to_S4 Int4_to_N4" />
    </vehicle>
    <vehicle id="v_1462" type="car" depart="277.38" departLane="free" departSpeed="random">
        <route edges="S2_to_Int2 Bypass_S2_to_S4 Int4_to_N4" />
    </vehicle>
    <vehicle id="v_50" type="car" depart="279.27" departLane="free" departSpeed="random">
        <route edges="W_to_1 4_to_E" />
    </vehicle>
    <vehicle id="v_1463" type="car" depart="280.18" departLane="free" departSpeed="random">
        <route edges="S2_to_Int2 Bypass_S2_to_S4 Int4_to_N4" />
    </vehicle>
    <vehicle id="v_51" type="car" depart="280.83" departLane="free" departSpeed="random">
        <route edges="W_to_1 4_to_E" />
    </vehicle>
    <vehicle id="v_52" type="car" depart="281.85" departLane="free" departSpeed="random">
        <route edges="W_to_1 4_to_E" />
    </vehicle>
    <vehicle id="v_53" type="car" depart="285.26" departLane="free" departSpeed="random">
        <route edges="W_to_1 4_to_E" />
    </vehicle>
    <vehicle id="v_856" type="car" depart="286.99" departLane="free" departSpeed="random">
        <route edges="Bypass_W_to_N2 Int2_to_S2" />
    </vehicle>
    <vehicle id="v_54" type="car" depart="287.33" departLane="free" departSpeed="random">
        <route edges="W_to_1 4_to_E" />
    </vehicle>
    <vehicle id="v_1464" type="car" depart="287.72" departLane="free" departSpeed="random">
        <route edges="S2_to_Int2 Bypass_S2_to_S4 Int4_to_N4" />
    </vehicle>
    <vehicle id="v_55" type="car" depart="289.36" departLane="free" departSpeed="random">
        <route edges="W_to_1 4_to_E" />
    </vehicle>
    <vehicle id="v_56" type="car" depart="289.40" departLane="free" departSpeed="random">
        <route edges="W_to_1 4_to_E" />
    </vehicle>
    <vehicle id="v_857" type="car" depart="290.55" departLane="free" departSpeed="random">
        <route edges="Bypass_W_to_N2 Int2_to_S2" />
    </vehicle>
    <vehicle id="v_858" type="car" depart="290.83" departLane="free" departSpeed="random">
        <route edges="Bypass_W_to_N2 Int2_to_S2" />
    </vehicle>
    <vehicle id="v_1465" type="car" depart="293.36" departLane="free" departSpeed="random">
        <route edges="S2_to_Int2 Bypass_S2_to_S4 Int4_to_N4" />
    </vehicle>
    <vehicle id="v_859" type="car" depart="296.52" departLane="free" departSpeed="random">
        <route edges="Bypass_W_to_N2 Int2_to_S2" />
    </vehicle>
    <vehicle id="v_1466" type="car" depart="296.54" departLane="free" departSpeed="random">
        <route edges="S2_to_Int2 Bypass_S2_to_S4 Int4_to_N4" />
    </vehicle>
    <vehicle id="v_1467" type="car" depart="297.21" departLane="free" departSpeed="random">
        <route edges="S2_to_Int2 Bypass_S2_to_S4 Int4_to_N4" />
    </vehicle>
    <vehicle id="v_57" type="car" depart="299.98" departLane="free" departSpeed="random">
        <route edges="W_to_1 4_to_E" />
    </vehicle>
    <vehicle id="v_58" type="car" depart="300.30" departLane="free" departSpeed="random">
        <route edges="W_to_1 4_to_E" />
    </vehicle>
    <vehicle id="v_860" type="car" depart="300.99" departLane="free" departSpeed="random">
        <route edges="Bypass_W_to_N2 Int2_to_S2" />
    </vehicle>
    <vehicle id="v_861" type="car" depart="307.09" departLane="free" departSpeed="random">
        <route edges="Bypass_W_to_N2 Int2_to_S2" />
    </vehicle>
    <vehicle id="v_862" type="car" depart="308.36" departLane="free" departSpeed="random">
        <route edges="Bypass_W_to_N2 Int2_to_S2" />
    </vehicle>
    <vehicle id="v_59" type="car" depart="311.65" departLane="free" departSpeed="random">
        <route edges="W_to_1 4_to_E" />
    </vehicle>
    <vehicle id="v_60" type="car" depart="313.58" departLane="free" departSpeed="random">
        <route edges="W_to_1 4_to_E" />
    </vehicle>
    <vehicle id="v_863" type="car" depart="318.24" departLane="free" departSpeed="random">
        <route edges="Bypass_W_to_N2 Int2_to_S2" />
    </vehicle>
    <vehicle id="v_61" type="car" depart="318.39" departLane="free" departSpeed="random">
        <route edges="W_to_1 4_to_E" />
    </vehicle>
    <vehicle id="v_62" type="car" depart="324.05" departLane="free" departSpeed="random">
        <route edges="W_to_1 4_to_E" />
    </vehicle>
    <vehicle id="v_63" type="car" depart="325.18" departLane="free" departSpeed="random">
        <route edges="W_to_1 4_to_E" />
    </vehicle>
    <vehicle id="v_64" type="car" depart="326.82" departLane="free" departSpeed="random">
        <route edges="W_to_1 4_to_E" />
    </vehicle>
    <vehicle id="v_1468" type="car" depart="327.24" departLane="free" departSpeed="random">
        <route edges="S2_to_Int2 Bypass_S2_to_S4 Int4_to_N4" />
    </vehicle>
    <vehicle id="v_65" type="car" depart="327.87" departLane="free" departSpeed="random">
        <route edges="W_to_1 4_to_E" />
    </vehicle>
    <vehicle id="v_1469" type="car" depart="327.88" departLane="free" departSpeed="random">
        <route edges="S2_to_Int2 Bypass_S2_to_S4 Int4_to_N4" />
    </vehicle>
    <vehicle id="v_66" type="car" depart="331.40" departLane="free" departSpeed="random">
        <route edges="W_to_1 4_to_E" />
    </vehicle>
    <vehicle id="v_864" type="car" depart="331.47" departLane="free" departSpeed="random">
        <route edges="Bypass_W_to_N2 Int2_to_S2" />
    </vehicle>
    <vehicle id="v_865" type="car" depart="332.82" departLane="free" departSpeed="random">
        <route edges="Bypass_W_to_N2 Int2_to_S2" />
    </vehicle>
    <vehicle id="v_67" type="car" depart="334.96" departLane="free" departSpeed="random">
        <route edges="W_to_1 4_to_E" />
    </vehicle>
    <vehicle id="v_68" type="car" depart="339.40" departLane="free" departSpeed="random">
        <route edges="W_to_1 4_to_E" />
    </vehicle>
    <vehicle id="v_1470" type="car" depart="342.93" departLane="free" departSpeed="random">
        <route edges="S2_to_Int2 Bypass_S2_to_S4 Int4_to_N4" />
    </vehicle>
    <vehicle id="v_69" type="car" depart="343.02" departLane="free" departSpeed="random">
        <route edges="W_to_1 4_to_E" />
    </vehicle>
    <vehicle id="v_866" type="car" depart="344.56" departLane="free" departSpeed="random">
        <route edges="Bypass_W_to_N2 Int2_to_S2" />
    </vehicle>
    <vehicle id="v_70" type="car" depart="345.98" departLane="free" departSpeed="random">
        <route edges="W_to_1 4_to_E" />
    </vehicle>
    <vehicle id="v_1471" type="car" depart="351.36" departLane="free" departSpeed="random">
        <route edges="S2_to_Int2 Bypass_S2_to_S4 Int4_to_N4" />
    </vehicle>
    <vehicle id="v_867" type="car" depart="352.42" departLane="free" departSpeed="random">
        <route edges="Bypass_W_to_N2 Int2_to_S2" />
    </vehicle>
    <vehicle id="v_71" type="car" depart="357.77" departLane="free" departSpeed="random">
        <route edges="W_to_1 4_to_E" />
    </vehicle>
    <vehicle id="v_72" type="car" depart="357.79" departLane="free" departSpeed="random">
        <route edges="W_to_1 4_to_E" />
    </vehicle>
    <vehicle id="v_73" type="car" depart="358.44" departLane="free" departSpeed="random">
        <route edges="W_to_1 4_to_E" />
    </vehicle>
    <vehicle id="v_868" type="car" depart="358.57" departLane="free" departSpeed="random">
        <route edges="Bypass_W_to_N2 Int2_to_S2" />
    </vehicle>
    <vehicle id="v_74" type="car" depart="367.19" departLane="free" departSpeed="random">
        <route edges="W_to_1 4_to_E" />
    </vehicle>
    <vehicle id="v_869" type="car" depart="367.26" departLane="free" departSpeed="random">
        <route edges="Bypass_W_to_N2 Int2_to_S2" />
    </vehicle>
    <vehicle id="v_75" type="car" depart="371.00" departLane="free" departSpeed="random">
        <route edges="W_to_1 4_to_E" />
    </vehicle>
    <vehicle id="v_870" type="car" depart="373.93" departLane="free" departSpeed="random">
        <route edges="Bypass_W_to_N2 Int2_to_S2" />
    </vehicle>
    <vehicle id="v_76" type="car" depart="376.58" departLane="free" departSpeed="random">
        <route edges="W_to_1 4_to_E" />
    </vehicle>
    <vehicle id="v_1472" type="car" depart="380.68" departLane="free" departSpeed="random">
        <route edges="S2_to_Int2 Bypass_S2_to_S4 Int4_to_N4" />
    </vehicle>
    <vehicle id="v_77" type="car" depart="381.95" departLane="free" departSpeed="random">
        <route edges="W_to_1 4_to_E" />
    </vehicle>
    <vehicle id="v_871" type="car" depart="382.02" departLane="free" departSpeed="random">
        <route edges="Bypass_W_to_N2 Int2_to_S2" />
    </vehicle>
    <vehicle id="v_1473" type="car" depart="383.75" departLane="free" departSpeed="random">
        <route edges="S2_to_Int2 Bypass_S2_to_S4 Int4_to_N4" />
    </vehicle>
    <vehicle id="v_1474" type="car" depart="386.17" departLane="free" departSpeed="random">
        <route edges="S2_to_Int2 Bypass_S2_to_S4 Int4_to_N4" />
    </vehicle>
    <vehicle id="v_78" type="car" depart="388.01" departLane="free" departSpeed="random">
        <route edges="W_to_1 4_to_E" />
    </vehicle>
    <vehicle id="v_79" type="car" depart="390.91" departLane="free" departSpeed="random">
        <route edges="W_to_1 4_to_E" />
    </vehicle>
    <vehicle id="v_1475" type="car" depart="391.36" departLane="free" departSpeed="random">