<?xml version='1.0' encoding='utf-8'?>
<routes xmlns:xsi="http://www.w3.org/2001/XMLSchema-instance" xsi:noNamespaceSchemaLocation="http://sumo.dlr.de/xsd/routes_file.xsd">
    <vType id="car" accel="2.6" decel="4.5" length="5" maxSpeed="13.89" guiShape="passenger" color="yellow" />
    <vehicle id="v_824" type="car" depart="1.87" departLane="free" departSpeed="random">
        <route edges="Bypass_W_to_N2 Int2_to_S2" />
    </vehicle>
    <vehicle id="v_1431" type="car" depart="2.05" departLane="free" departSpeed="random">
        <route edges="S2_to_Int2 Bypass_S2_to_S4 Int4_to_N4" />
    </vehicle>
    <vehicle id="v_825" type="car" depart="3.84" departLane="free" departSpeed="random">
        <route edges="Bypass_W_to_N2 Int2_to_S2" />
    </vehicle>
    <vehicle id="v_0" type="car" depart="4.44" departLane="free" departSpeed="random">
        <route edges="W_to_1 4_to_E" />
    </vehicle>
    <vehicle id="v_1" type="car" depart="5.98" departLane="free" departSpeed="random">
        <route edges="W_to_1 4_to_E" />
    </vehicle>
    <vehicle id="v_826" type="car" depart="8.31" departLane="free" departSpeed="random">
        <route edges="Bypass_W_to_N2 Int2_to_S2" />
    </vehicle>
    <vehicle id="v_2" type="car" depart="14.43" departLane="free" departSpeed="random">
        <route edges="W_to_1 4_to_E" />
    </vehicle>
    <vehicle id="v_1432" type="car" depart="15.50" departLane="free" departSpeed="random">
        <route edges="S2_to_Int2 Bypass_S2_to_S4 Int4_to_N4" />
    </vehicle>
    <vehicle id="v_3" type="car" depart="16.20" departLane="free" departSpeed="random">
        <route edges="W_to_1 4_to_E" />
    </vehicle>
    <vehicle id="v_827" type="car" depart="16.63" departLane="free" departSpeed="random">
        <route edges="Bypass_W_to_N2 Int2_to_S2" />
    </vehicle>
    <vehicle id="v_4" type="car" depart="17.07" departLane="free" departSpeed="random">
        <route edges="W_to_1 4_to_E" />
    </vehicle>
    <vehicle id="v_5" type="car" depart="19.55" departLane="free" departSpeed="random">
        <route edges="W_to_1 4_to_E" />
    </vehicle>
    <vehicle id="v_828" type="car" depart="19.70" departLane="free" departSpeed="random">
        <route edges="Bypass_W_to_N2 Int2_to_S2" />
    </vehicle>
    <vehicle id="v_6" type="car" depart="26.33" departLane="free" departSpeed="random">
        <route edges="W_to_1 4_to_E" />
    </vehicle>
    <vehicle id="v_7" type="car" depart="26.50" departLane="free" departSpeed="random">
        <route edges="W_to_1 4_to_E" />
    </vehicle>
    <vehicle id="v_829" type="car" depart="27.03" departLane="free" departSpeed="random">
        <route edges="Bypass_W_to_N2 Int2_to_S2" />
    </vehicle>
    <vehicle id="v_8" type="car" depart="33.34" departLane="free" departSpeed="random">
        <route edges="W_to_1 4_to_E" />
    </vehicle>
    <vehicle id="v_9" type="car" depart="38.62" departLane="free" departSpeed="random">
        <route edges="W_to_1 4_to_E" />
    </vehicle>
    <vehicle id="v_1433" type="car" depart="39.66" departLane="free" departSpeed="random">
        <route edges="S2_to_Int2 Bypass_S2_to_S4 Int4_to_N4" />
    </vehicle>
    <vehicle id="v_10" type="car" depart="44.29" departLane="free" departSpeed="random">
        <route edges="W_to_1 4_to_E" />
    </vehicle>
    <vehicle id="v_830" type="car" depart="44.89" departLane="free" departSpeed="random">
        <route edges="Bypass_W_to_N2 Int2_to_S2" />
    </vehicle>
    <vehicle id="v_11" type="car" depart="50.17" departLane="free" departSpeed="random">
        <route edges="W_to_1 4_to_E" />
    </vehicle>
    <vehicle id="v_12" type="car" depart="52.86" departLane="free" departSpeed="random">
        <route edges="W_to_1 4_to_E" />
    </vehicle>
    <vehicle id="v_1434" type="car" depart="56.90" departLane="free" departSpeed="random">
        <route edges="S2_to_Int2 Bypass_S2_to_S4 Int4_to_N4" />
    </vehicle>
    <vehicle id="v_13" type="car" depart="59.69" departLane="free" departSpeed="random">
        <route edges="W_to_1 4_to_E" />
    </vehicle>
    <vehicle id="v_14" type="car" depart="63.61" departLane="free" departSpeed="random">
        <route edges="W_to_1 4_to_E" />
    </vehicle>
    <vehicle id="v_15" type="car" depart="64.21" departLane="free" departSpeed="random">
        <route edges="W_to_1 4_to_E" />
    </vehicle>
    <vehicle id="v_16" type="car" depart="65.38" departLane="free" departSpeed="random">
        <route edges="W_to_1 4_to_E" />
    </vehicle>
    <vehicle id="v_1435" type="car" depart="66.38" departLane="free" departSpeed="random">
        <route edges="S2_to_Int2 Bypass_S2_to_S4 Int4_to_N4" />
    </vehicle>
    <vehicle id="v_17" type="car" depart="68.52" departLane="free" departSpeed="random">
        <route edges="W_to_1 4_to_E" />
    </vehicle>
    <vehicle id="v_831" type="car" depart="71.16" departLane="free" departSpeed="random">
        <route edges="Bypass_W_to_N2 Int2_to_S2" />
    </vehicle>
    <vehicle id="v_18" type="car" depart="76.13" departLane="free" departSpeed="random">
        <route edges="W_to_1 4_to_E" />
    </vehicle>
    <vehicle id="v_1436" type="car" depart="76.16" departLane="free" departSpeed="random">
        <route edges="S2_to_Int2 Bypass_S2_to_S4 Int4_to_N4" />
    </vehicle>
    <vehicle id="v_19" type="car" depart="77.80" departLane="free" departSpeed="random">
        <route edges="W_to_1 4_to_E" />
    </vehicle>
    <vehicle id="v_1437" type="car" depart="78.20" departLane="free" departSpeed="random">
        <route edges="S2_to_Int2 Bypass_S2_to_S4 Int4_to_N4" />
    </vehicle>
    <vehicle id="v_20" type="car" depart="81.76" departLane="free" departSpeed="random">
        <route edges="W_to_1 4_to_E" />
    </vehicle>
    <vehicle id="v_21" type="car" depart="82.09" departLane="free" departSpeed="random">
        <route edges="W_to_1 4_to_E" />
    </vehicle>
    <vehicle id="v_832" type="car" depart="83.30" departLane="free" departSpeed="random">
        <route edges="Bypass_W_to_N2 Int2_to_S2" />
    </vehicle>
    <vehicle id="v_833" type="car" depart="83.62" departLane="free" departSpeed="random">
        <route edges="Bypass_W_to_N2 Int2_to_S2" />
    </vehicle>
    <vehicle id="v_834" type="car" depart="86.29" departLane="free" departSpeed="random">
        <route edges="Bypass_W_to_N2 Int2_to_S2" />
    </vehicle>
    <vehicle id="v_1438" type="car" depart="88.02" departLane="free" departSpeed="random">
        <route edges="S2_to_Int2 Bypass_S2_to_S4 Int4_to_N4" />
    </vehicle>
    <vehicle id="v_22" type="car" depart="89.36" departLane="free" departSpeed="random">
        <route edges="W_to_1 4_to_E" />
    </vehicle>
    <vehicle id="v_23" type="car" depart="89.49" departLane="free" departSpeed="random">
        <route edges="W_to_1 4_to_E" />
    </vehicle>
    <vehicle id="v_835" type="car" depart="95.52" departLane="free" departSpeed="random">
        <route edges="Bypass_W_to_N2 Int2_to_S2" />
    </vehicle>
    <vehicle id="v_836" type="car" depart="95.68" departLane="free" departSpeed="random">
        <route edges="Bypass_W_to_N2 Int2_to_S2" />
    </vehicle>
    <vehicle id="v_1439" type="car" depart="97.86" departLane="free" departSpeed="random">
        <route edges="S2_to_Int2 Bypass_S2_to_S4 Int4_to_N4" />
    </vehicle>
    <vehicle id="v_24" type="car" depart="104.40" departLane="free" departSpeed="random">
        <route edges="W_to_1 4_to_E" />
    </vehicle>
    <vehicle id="v_25" type="car" depart="106.59" departLane="free" departSpeed="random">
        <route edges="W_to_1 4_to_E" />
    </vehicle>
    <vehicle id="v_26" type="car" depart="107.41" departLane="free" departSpeed="random">
        <route edges="W_to_1 4_to_E" />
    </vehicle>
    <vehicle id="v_837" type="car" depart="108.20" departLane="free" departSpeed="random">
        <route edges="Bypass_W_to_N2 Int2_to_S2" />
    </vehicle>
    <vehicle id="v_27" type="car" depart="110.94" departLane="free" departSpeed="random">
        <route edges="W_to_1 4_to_E" />
    </vehicle>
    <vehicle id="v_1440" type="car" depart="111.21" departLane="free" departSpeed="random">
        <route edges="S2_to_Int2 Bypass_S2_to_S4 Int4_to_N4" />
    </vehicle>
    <vehicle id="v_28" type="car" depart="112.62" departLane="free" departSpeed="random">
        <route edges="W_to_1 4_to_E" />
    </vehicle>
    <vehicle id="v_1441" type="car" depart="115.74" departLane="free" departSpeed="random">
        <route edges="S2_to_Int2 Bypass_S2_to_S4 Int4_to_N4" />
    </vehicle>
    <vehicle id="v_838" type="car" depart="125.42" departLane="free" departSpeed="random">
        <route edges="Bypass_W_to_N2 Int2_to_S2" />
    </vehicle>
    <vehicle id="v_1442" type="car" depart="126.42" departLane="free" departSpeed="random">
        <route edges="S2_to_Int2 Bypass_S2_to_S4 Int4_to_N4" />
    </vehicle>
    <vehicle id="v_839" type="car" depart="126.63" departLane="free" departSpeed="random">
        <route edges="Bypass_W_to_N2 Int2_to_S2" />
    </vehicle>
    <vehicle id="v_29" type="car" depart="129.03" departLane="free" departSpeed="random">
        <route edges="W_to_1 4_to_E" />
    </vehicle>
    <vehicle id="v_840" type="car" depart="129.24" departLane="free" departSpeed="random">
        <route edges="Bypass_W_to_N2 Int2_to_S2" />
    </vehicle>
    <vehicle id="v_30" type="car" depart="129.82" departLane="free" departSpeed="random">
        <route edges="W_to_1 4_to_E" />
    </vehicle>
    <vehicle id="v_31" type="car" depart="130.19" departLane="free" departSpeed="random">
        <route edges="W_to_1 4_to_E" />
    </vehicle>
    <vehicle id="v_32" type="car" depart="133.09" departLane="free" departSpeed="random">
        <route edges="W_to_1 4_to_E" />
    </vehicle>
    <vehicle id="v_33" type="car" depart="134.69" departLane="free" departSpeed="random">
        <route edges="W_to_1 4_to_E" />
    </vehicle>
    <vehicle id="v_841" type="car" depart="138.75" departLane="free" departSpeed="random">
        <route edges="Bypass_W_to_N2 Int2_to_S2" />
    </vehicle>
    <vehicle id="v_1443" type="car" depart="139.12" departLane="free" departSpeed="random">
        <route edges="S2_to_Int2 Bypass_S2_to_S4 Int4_to_N4" />
    </vehicle>
    <vehicle id="v_842" type="car" depart="144.34" departLane="free" departSpeed="random">
        <route edges="Bypass_W_to_N2 Int2_to_S2" />
    </vehicle>
    <vehicle id="v_34" type="car" depart="144.54" departLane="free" departSpeed="random">
        <route edges="W_to_1 4_to_E" />
    </vehicle>
    <vehicle id="v_843" type="car" depart="144.91" departLane="free" departSpeed="random">
        <route edges="Bypass_W_to_N2 Int2_to_S2" />
    </vehicle>
    <vehicle id="v_844" type="car" depart="145.44" departLane="free" departSpeed="random">
        <route edges="Bypass_W_to_N2 Int2_to_S2" />
    </vehicle>
    <vehicle id="v_35" type="car" depart="147.41" departLane="free" departSpeed="random">
        <route edges="W_to_1 4_to_E" />
    </vehicle>
    <vehicle id="v_36" type="car" depart="147.88" departLane="free" departSpeed="random">
        <route edges="W_to_1 4_to_E" />
    </vehicle>
    <vehicle id="v_37" type="car" depart="149.81" departLane="free" departSpeed="random">
        <route edges="W_to_1 4_to_E" />
    </vehicle>
    <vehicle id="v_38" type="car" depart="152.46" departLane="free" departSpeed="random">
        <route edges="W_to_1 4_to_E" />
    </vehicle>
    <vehicle id="v_1444" type="car" depart="153.19" departLane="free" departSpeed="random">
        <route edges="S2_to_Int2 Bypass_S2_to_S4 Int4_to_N4" />
    </vehicle>
    <vehicle id="v_39" type="car" depart="156.51" departLane="free" departSpeed="random">
        <route edges="W_to_1 4_to_E" />
    </vehicle>
    <vehicle id="v_40" type="car" depart="157.69" departLane="free" departSpeed="random">
        <route edges="W_to_1 4_to_E" />
    </vehicle>
    <vehicle id="v_845" type="car" depart="159.03" departLane="free" departSpeed="random">
        <route edges="Bypass_W_to_N2 Int2_to_S2" />
    </vehicle>
    <vehicle id="v_41" type="car" depart="160.74" departLane="free" departSpeed="random">
        <route edges="W_to_1 4_to_E" />
    </vehicle>
    <vehicle id="v_42" type="car" depart="161.68" departLane="free" departSpeed="random">
        <route edges="W_to_1 4_to_E" />
    </vehicle>
    <vehicle id="v_846" type="car" depart="162.41" departLane="free" departSpeed="random">
        <route edges="Bypass_W_to_N2 Int2_to_S2" />
    </vehicle>
    <vehicle id="v_847" type="car" depart="162.62" departLane="free" departSpeed="random">
        <route edges="Bypass_W_to_N2 Int2_to_S2" />
    </vehicle>
    <vehicle id="v_1445" type="car" depart="165.47" departLane="free" departSpeed="random">
        <route edges="S2_to_Int2 Bypass_S2_to_S4 Int4_to_N4" />
    </vehicle>
    <vehicle id="v_43" type="car" depart="170.55" departLane="free" departSpeed="random">
        <route edges="W_to_1 4_to_E" />
    </vehicle>
    <vehicle id="v_44" type="car" depart="174.85" departLane="free" departSpeed="random">
        <route edges="W_to_1 4_to_E" />
    </vehicle>
    <vehicle id="v_45" type="car" depart="175.31" departLane="free" departSpeed="random">
        <route edges="W_to_1 4_to_E" />
    </vehicle>
    <vehicle id="v_46" type="car" depart="176.27" departLane="free" departSpeed="random">
        <route edges="W_to_1 4_to_E" />
    </vehicle>
    <vehicle id="v_1446" type="car" depart="176.82" departLane="free" departSpeed="random">
        <route edges="S2_to_Int2 Bypass_S2_to_S4 Int4_to_N4" />
    </vehicle>
    <vehicle id="v_47" type="car" depart="177.31" departLane="free" departSpeed="random">
        <route edges="W_to_1 4_to_E" />
    </vehicle>
    <vehicle id="v_848" type="car" depart="178.05" departLane="free" departSpeed="random">
        <route edges="Bypass_W_to_N2 Int2_to_S2" />
    </vehicle>
    <vehicle id="v_849" type="car" depart="180.38" departLane="free" departSpeed="random">
        <route edges="Bypass_W_to_N2 Int2_to_S2" />
    </vehicle>
    <vehicle id="v_48" type="car" depart="181.87" departLane="free" departSpeed="random">
        <route edges="W_to_1 4_to_E" />
    </vehicle>
    <vehicle id="v_1447" type="car" depart="181.93" departLane="free" departSpeed="random">
        <route edges="S2_to_Int2 Bypass_S2_to_S4 Int4_to_N4" />
    </vehicle>
    <vehicle id="v_1448" type="car" depart="183.00" departLane="free" departSpeed="random">
        <route edges="S2_to_Int2 Bypass_S2_to_S4 Int4_to_N4" />
    </vehicle>
    <vehicle id="v_1449" type="car" depart="183.17" departLane="free" departSpeed="random">
        <route edges="S2_to_Int2 Bypass_S2_to_S4 Int4_to_N4" />
    </vehicle>
    <vehicle id="v_49" type="car" depart="183.46" departLane="free" departSpeed="random">
        <route edges="W_to_1 4_to_E" />
    </vehicle>
    <vehicle id="v_850" type="car" depart="185.11" departLane="free" departSpeed="random">
        <route edges="Bypass_W_to_N2 Int2_to_S2" />
    </vehicle>
    <vehicle id="v_50" type="car" depart="185.97" departLane="free" departSpeed="random">
        <route edges="W_to_1 4_to_E" />
    </vehicle>
    <vehicle id="v_51" type="car" depart="187.06" departLane="free" departSpeed="random">
        <route edges="W_to_1 4_to_E" />
    </vehicle>
    <vehicle id="v_851" type="car" depart="189.27" departLane="free" departSpeed="random">
        <route edges="Bypass_W_to_N2 Int2_to_S2" />
    </vehicle>
    <vehicle id="v_852" type="car" depart="190.11" departLane="free" departSpeed="random">
        <route edges="Bypass_W_to_N2 Int2_to_S2" />
    </vehicle>
    <vehicle id="v_52" type="car" depart="192.17" departLane="free" departSpeed="random">
        <route edges="W_to_1 4_to_E" />
    </vehicle>
    <vehicle id="v_53" type="car" depart="196.20" departLane="free" departSpeed="random">
        <route edges="W_to_1 4_to_E" />
    </vehicle>
    <vehicle id="v_1450" type="car" depart="197.77" departLane="free" departSpeed="random">
        <route edges="S2_to_Int2 Bypass_S2_to_S4 Int4_to_N4" />
    </vehicle>
    <vehicle id="v_1451" type="car" depart="198.76" departLane="free" departSpeed="random">
        <route edges="S2_to_Int2 Bypass_S2_to_S4 Int4_to_N4" />
    </vehicle>
    <vehicle id="v_853" type="car" depart="198.97" departLane="free" departSpeed="random">
        <route edges="Bypass_W_to_N2 Int2_to_S2" />
    </vehicle>
    <vehicle id="v_54" type="car" depart="199.42" departLane="free" departSpeed="random">
        <route edges="W_to_1 4_to_E" />
    </vehicle>
    <vehicle id="v_55" type="car" depart="200.04" departLane="free" departSpeed="random">
        <route edges="W_to_1 4_to_E" />
    </vehicle>
    <vehicle id="v_56" type="car" depart="206.03" departLane="free" departSpeed="random">
        <route edges="W_to_1 4_to_E" />
    </vehicle>
    <vehicle id="v_1452" type="car" depart="208.60" departLane="free" departSpeed="random">
        <route edges="S2_to_Int2 Bypass_S2_to_S4 Int4_to_N4" />
    </vehicle>
    <vehicle id="v_57" type="car" depart="209.19" departLane="free" departSpeed="random">
        <route edges="W_to_1 4_to_E" />
    </vehicle>
    <vehicle id="v_58" type="car" depart="209.89" departLane="free" departSpeed="random">
        <route edges="W_to_1 4_to_E" />
    </vehicle>
    <vehicle id="v_854" type="car" depart="214.15" departLane="free" departSpeed="random">
        <route edges="Bypass_W_to_N2 Int2_to_S2" />
    </vehicle>
    <vehicle id="v_855" type="car" depart="215.37" departLane="free" departSpeed="random">
        <route edges="Bypass_W_to_N2 Int2_to_S2" />
    </vehicle>
    <vehicle id="v_1453" type="car" depart="217.19" departLane="free" departSpeed="random">
        <route edges="S2_to_Int2 Bypass_S2_to_S4 Int4_to_N4" />
    </vehicle>
    <vehicle id="v_59" type="car" depart="217.90" departLane="free" departSpeed="random">
        <route edges="W_to_1 4_to_E" />
    </vehicle>
    <vehicle id="v_856" type="car" depart="223.43" departLane="free" departSpeed="random">
        <route edges="Bypass_W_to_N2 Int2_to_S2" />
    </vehicle>
    <vehicle id="v_857" type="car" depart="227.22" departLane="free" departSpeed="random">
        <route edges="Bypass_W_to_N2 Int2_to_S2" />
    </vehicle>
    <vehicle id="v_1454" type="car" depart="227.98" departLane="free" departSpeed="random">
        <route edges="S2_to_Int2 Bypass_S2_to_S4 Int4_to_N4" />
    </vehicle>
    <vehicle id="v_60" type="car" depart="229.74" departLane="free" departSpeed="random">
        <route edges="W_to_1 4_to_E" />
    </vehicle>
    <vehicle id="v_1455" type="car" depart="233.81" departLane="free" departSpeed="random">
        <route edges="S2_to_Int2 Bypass_S2_to_S4 Int4_to_N4" />
    </vehicle>
    <vehicle id="v_61" type="car" depart="235.91" departLane="free" departSpeed="random">
        <route edges="W_to_1 4_to_E" />
    </vehicle>
    <vehicle id="v_858" type="car" depart="237.89" departLane="free" departSpeed="random">
        <route edges="Bypass_W_to_N2 Int2_to_S2" />
    </vehicle>
    <vehicle id="v_62" type="car" depart="239.61" departLane="free" departSpeed="random">
        <route edges="W_to_1 4_to_E" />
    </vehicle>
    <vehicle id="v_1456" type="car" depart="240.57" departLane="free" departSpeed="random">
        <route edges="S2_to_Int2 Bypass_S2_to_S4 Int4_to_N4" />
    </vehicle>
    <vehicle id="v_63" type="car" depart="241.80" departLane="free" departSpeed="random">
        <route edges="W_to_1 4_to_E" />
    </vehicle>
    <vehicle id="v_859" type="car" depart="243.07" departLane="free" departSpeed="random">
        <route edges="Bypass_W_to_N2 Int2_to_S2" />
    </vehicle>
    <vehicle id="v_860" type="car" depart="250.71" departLane="free" departSpeed="random">
        <route edges="Bypass_W_to_N2 Int2_to_S2" />
    </vehicle>
    <vehicle id="v_1457" type="car" depart="251.75" departLane="free" departSpeed="random">
        <route edges="S2_to_Int2 Bypass_S2_to_S4 Int4_to_N4" />
    </vehicle>
    <vehicle id="v_1458" type="car" depart="256.70" departLane="free" departSpeed="random">
        <route edges="S2_to_Int2 Bypass_S2_to_S4 Int4_to_N4" />
    </vehicle>
    <vehicle id="v_1459" type="car" depart="258.47" departLane="free" departSpeed="random">
        <route edges="S2_to_Int2 Bypass_S2_to_S4 Int4_to_N4" />
    </vehicle>
    <vehicle id="v_861" type="car" depart="258.56" departLane="free" departSpeed="random">
        <route edges="Bypass_W_to_N2 Int2_to_S2" />
    </vehicle>
    <vehicle id="v_1460" type="car" depart="258.66" departLane="free" departSpeed="random">
        <route edges="S2_to_Int2 Bypass_S2_to_S4 Int4_to_N4" />
    </vehicle>
    <vehicle id="v_64" type="car" depart="259.41" departLane="free" departSpeed="random">
        <route edges="W_to_1 4_to_E" />
    </vehicle>
    <vehicle id="v_1461" type="car" depart="266.61" departLane="free" departSpeed="random">
        <route edges="S2_to_Int2 Bypass_S2_to_S4 Int4_to_N4" />
    </vehicle>
    <vehicle id="v_1462" type="car" depart="266.65" departLane="free" departSpeed="random">
        <route edges="S2_to_Int2 Bypass_S2_to_S4 Int4_to_N4" />
    </vehicle>
    <vehicle id="v_862" type="car" depart="278.77" departLane="free" departSpeed="random">
        <route edges="Bypass_W_to_N2 Int2_to_S2" />
    </vehicle>
    <vehicle id="v_1463" type="car" depart="279.88" departLane="free" departSpeed="random">
        <route edges="S2_to_Int2 Bypass_S2_to_S4 Int4_to_N4" />
    </vehicle>
    <vehicle id="v_65" type="car" depart="281.19" departLane="free" departSpeed="random">
        <route edges="W_to_1 4_to_E" />
    </vehicle>
    <vehicle id="v_66" type="car" depart="288.18" departLane="free" departSpeed="random">
        <route edges="W_to_1 4_to_E" />
    </vehicle>
    <vehicle id="v_863" type="car" depart="290.65" departLane="free" departSpeed="random">
        <route edges="Bypass_W_to_N2 Int2_to_S2" />
    </vehicle>
    <vehicle id="v_1464" type="car" depart="292.15" departLane="free" departSpeed="random">
        <route edges="S2_to_Int2 Bypass_S2_to_S4 Int4_to_N4" />
    </vehicle>
    <vehicle id="v_67" type="car" depart="297.83" departLane="free" departSpeed="random">
        <route edges="W_to_1 4_to_E" />
    </vehicle>
    <vehicle id="v_68" type="car" depart="302.82" departLane="free" departSpeed="random">
        <route edges="W_to_1 4_to_E" />
    </vehicle>
    <vehicle id="v_69" type="car" depart="304.00" departLane="free" departSpeed="random">
        <route edges="W_to_1 4_to_E" />
    </vehicle>
    <vehicle id="v_70" type="car" depart="304.18" departLane="free" departSpeed="random">
        <route edges="W_to_1 4_to_E" />
    </vehicle>
    <vehicle id="v_71" type="car" depart="305.32" departLane="free" departSpeed="random">
        <route edges="W_to_1 4_to_E" />
    </vehicle>
    <vehicle id="v_72" type="car" depart="305.35" departLane="free" departSpeed="random">
        <route edges="W_to_1 4_to_E" />
    </vehicle>
    <vehicle id="v_864" type="car" depart="309.54" departLane="free" departSpeed="random">
        <route edges="Bypass_W_to_N2 Int2_to_S2" />
    </vehicle>
    <vehicle id="v_1465" type="car" depart="312.16" departLane="free" departSpeed="random">
        <route edges="S2_to_Int2 Bypass_S2_to_S4 Int4_to_N4" />
    </vehicle>
    <vehicle id="v_73" type="car" depart="315.54" departLane="free" departSpeed="random">
        <route edges="W_to_1 4_to_E" />
    </vehicle>
    <vehicle id="v_74" type="car" depart="315.75" departLane="free" departSpeed="random">
        <route edges="W_to_1 4_to_E" />
    </vehicle>
    <vehicle id="v_1466" type="car" depart="320.55" departLane="free" departSpeed="random">
        <route edges="S2_to_Int2 Bypass_S2_to_S4 Int4_to_N4" />
    </vehicle>
    <vehicle id="v_865" type="car" depart="323.11" departLane="free" departSpeed="random">
        <route edges="Bypass_W_to_N2 Int2_to_S2" />
    </vehicle>
    <vehicle id="v_1467" type="car" depart="324.01" departLane="free" departSpeed="random">
        <route edges="S2_to_Int2 Bypass_S2_to_S4 Int4_to_N4" />
    </vehicle>
    <vehicle id="v_75" type="car" depart="324.17" departLane="free" departSpeed="random">
        <route edges="W_to_1 4_to_E" />
    </vehicle>
    <vehicle id="v_76" type="car" depart="325.59" departLane="free" departSpeed="random">
        <route edges="W_to_1 4_to_E" />
    </vehicle>
    <vehicle id="v_1468" type="car" depart="326.08" departLane="free" departSpeed="random">
        <route edges="S2_to_Int2 Bypass_S2_to_S4 Int4_to_N4" />
    </vehicle>
    <vehicle id="v_77" type="car" depart="330.20" departLane="free" departSpeed="random">
        <route edges="W_to_1 4_to_E" />
    </vehicle>
    <vehicle id="v_866" type="car" depart="330.21" departLane="free" departSpeed="random">
        <route edges="Bypass_W_to_N2 Int2_to_S2" />
    </vehicle>
    <vehicle id="v_867" type="car" depart="333.92" departLane="free" departSpeed="random">
        <route edges="Bypass_W_to_N2 Int2_to_S2" />
    </vehicle>
    <vehicle id="v_1469" type="car" depart="337.71" departLane="free" departSpeed="random">
        <route edges="S2_to_Int2 Bypass_S2_to_S4 Int4_to_N4" />
    </vehicle>
    <vehicle id="v_868" type="car" depart="338.66" departLane="free" departSpeed="random">
        <route edges="Bypass_W_to_N2 Int2_to_S2" />
    </vehicle>
    <vehicle id="v_78" type="car" depart="339.04" departLane="free" departSpeed="random">
        <route edges="W_to_1 4_to_E" />
    </vehicle>
    <vehicle id="v_869" type="car" depart="339.43" departLane="free" departSpeed="random">
        <route edges="Bypass_W_to_N2 Int2_to_S2" />
    </vehicle>
    <vehicle id="v_79" type="car" depart="340.08" departLane="free" departSpeed="random">
        <route edges="W_to_1 4_to_E" />
    </vehicle>
    <vehicle id="v_870" type="car" depart="340.70" departLane="free" departSpeed="random">
        <route edges="Bypass_W_to_N2 Int2_to_S2" />
    </vehicle>
    <vehicle id="v_80" type="car" depart="342.18" departLane="free" departSpeed="random">
        <route edges="W_to_1 4_to_E" />
    </vehicle>
    <vehicle id="v_81" type="car" depart="342.34" departLane="free" departSpeed="random">
        <route edges="W_to_1 4_to_E" />
    </vehicle>
    <vehicle id="v_1470" type="car" depart="342.68" departLane="free" departSpeed="random">
        <route edges="S2_to_Int2 Bypass_S2_to_S4 Int4_to_N4" />
    </vehicle>
    <vehicle id="v_871" type="car" depart="342.72" departLane="free" departSpeed="random">
        <route edges="Bypass_W_to_N2 Int2_to_S2" />
    </vehicle>
    <vehicle id="v_872" type="car" depart="345.94" departLane="free" departSpeed="random">
        <route edges="Bypass_W_to_N2 Int2_to_S2" />
    </vehicle>
    <vehicle id="v_82" type="car" depart="347.01" departLane="free" departSpeed="random">
        <route edges="W_to_1 4_to_E" />
    </vehicle>
    <vehicle id="v_873" type="car" depart="348.52" departLane="free" departSpeed="random">
        <route edges="Bypass_W_to_N2 Int2_to_S2" />
    </vehicle>
    <vehicle id="v_874" type="car" depart="349.12" departLane="free" departSpeed="random">
        <route edges="Bypass_W_to_N2 Int2_to_S2" />
    </vehicle>
    <vehicle id="v_1471" type="car" depart="352.04" departLane="free" departSpeed="random">
        <route edges="S2_to_Int2 Bypass_S2_to_S4 Int4_to_N4" />
    </vehicle>
    <vehicle id="v_875" type="car" depart="356.13" departLane="free" departSpeed="random">
        <route edges="Bypass_W_to_N2 Int2_to_S2" />
    </vehicle>
    <vehicle id="v_83" type="car" depart="356.81" departLane="free" departSpeed="random">
        <route edges="W_to_1 4_to_E" />
    </vehicle>
    <vehicle id="v_876" type="car" depart="356.97" departLane="free" departSpeed="random">
        <route edges="Bypass_W_to_N2 Int2_to_S2" />
    </vehicle>
    <vehicle id="v_877" type="car" depart="359.39" departLane="free" departSpeed="random">
        <route edges="Bypass_W_to_N2 Int2_to_S2" />
    </vehicle>
    <vehicle id="v_878" type="car" depart="359.50" departLane="free" departSpeed="random">
        <route edges="Bypass_W_to_N2 Int2_to_S2" />
    </vehicle>
    <vehicle id="v_879" type="car" depart="361.42" departLane="free" departSpeed="random">
        <route edges="Bypass_W_to_N2 Int2_to_S2" />
    </vehicle>
    <vehicle id="v_880" type="car" depart="363.98" departLane="free" departSpeed="random">
        <route edges="Bypass_W_to_N2 Int2_to_S2" />
    </vehicle>
    <vehicle id="v_84" type="car" depart="366.02" departLane="free" departSpeed="random">
        <route edges="W_to_1 4_to_E" />
    </vehicle>
    <vehicle id="v_85" type="car" depart="366.82" departLane="free" departSpeed="random">
        <route edges="W_to_1 4_to_E" />
    </vehicle>
    <vehicle id="v_1472" type="car" depart="370.07" departLane="free" departSpeed="random">
        <route edges="S2_to_Int2 Bypass_S2_to_S4 Int4_to_N4" />
    </vehicle>
    <vehicle id="v_86" type="car" depart="370.81" departLane="free" departSpeed="random">
        <route edges="W_to_1 4_to_E" />
    </vehicle>
    <vehicle id="v_881" type="car" depart="371.82" departLane="free" departSpeed="random">
        <route edges="Bypass_W_to_N2 Int2_to_S2" />
    </vehicle>
    <vehicle id="v_87" type="car" depart="372.25" departLane="free" departSpeed="random">
        <route edges="W_to_1 4_to_E" />
    </vehicle>
    <vehicle id="v_882" type="car" depart="376.61" departLane="free" departSpeed="random">
        <route edges="Bypass_W_to_N2 Int2_to_S2" />
    </vehicle>
    <vehicle id="v_88" type="car" depart="377.93" departLane="free" departSpeed="random">
        <route edges="W_to_1 4_to_E" />
    </vehicle>
    <vehicle id="v_89" type="car" depart="379.00" departLane="free" departSpeed="random">
        <route edges="W_to_1 4_to_E" />
    </vehicle>
    <vehicle id="v_90" type="car" depart="381.23" departLane="free" departSpeed="random">
        <route edges="W_to_1 4_to_E" />
    </vehicle>