<?xml version="1.0" encoding="UTF-8"?>

<!-- generated on 2026-03-13T13:29:44.277558+04:00 by Eclipse SUMO netconvert v1_26_0+0011-e6bc1103481
<netconvertConfiguration xmlns:xsi="http://www.w3.org/2001/XMLSchema-instance" xsi:noNamespaceSchemaLocation="http://sumo.dlr.de/xsd/netconvertConfiguration.xsd">

    <input>
        <node-files value="baku_linear_v2/baku.nod.xml"/>
        <edge-files value="baku_linear_v2/baku.edg.xml"/>
    </input>

    <output>
        <output-file value="baku_linear_v2/baku.net.xml"/>
    </output>

    <report>
        <no-warnings value="true"/>
    </report>

</netconvertConfiguration>
-->

<net version="1.20" junctionCornerDetail="5" limitTurnSpeed="5.50" xmlns:xsi="http://www.w3.org/2001/XMLSchema-instance" xsi:noNamespaceSchemaLocation="http://sumo.dlr.de/xsd/net_file.xsd">

    <location netOffset="500.00,400.00" convBoundary="0.00,0.00,2800.00,800.00" origBoundary="-500.00,-400.00,2300.00,400.00" projParameter="!"/>

    <edge id=":Int1_0" function="internal">
        <lane id=":Int1_0_0" index="0" speed="13.89" length="17.60" shape="495.20,404.00 495.20,386.40"/>
        <lane id=":Int1_0_1" index="1" speed="13.89" length="17.60" shape="498.40,404.00 498.40,386.40"/>
    </edge>
    <edge id=":Int1_2" function="internal">
        <lane id=":Int1_2_0" index="0" speed="8.10" length="2.37" shape="498.40,404.00 499.09,401.73"/>
    </edge>
    <edge id=":Int1_3" function="internal">
        <lane id=":Int1_3_0" index="0" speed="3.65" length="1.44" shape="498.40,404.00 499.20,402.80"/>
    </edge>
    <edge id=":Int1_13" function="internal">
        <lane id=":Int1_13_0" index="0" speed="8.10" length="12.20" shape="499.09,401.73 499.15,401.55 501.40,399.80 505.15,398.75 510.40,398.40"/>
    </edge>
    <edge id=":Int1_14" function="internal">
        <lane id=":Int1_14_0" index="0" speed="3.65" length="3.23" shape="499.20,402.80 500.00,402.40 500.80,402.80 501.60,404.00"/>
    </edge>
    <edge id=":Int1_4" function="internal">
        <lane id=":Int1_4_0" index="0" speed="6.51" length="9.03" shape="504.80,386.40 505.15,388.85 506.20,390.60 507.95,391.65 510.40,392.00"/>
    </edge>
    <edge id=":Int1_5" function="internal">
        <lane id=":Int1_5_0" index="0" speed="13.89" length="17.60" shape="504.80,386.40 504.80,404.00"/>
        <lane id=":Int1_5_1" index="1" speed="13.89" length="17.60" shape="501.60,386.40 501.60,404.00"/>
    </edge>
    <edge id=":Int1_7" function="internal">
        <lane id=":Int1_7_0" index="0" speed="3.65" length="1.44" shape="501.60,386.40 500.80,387.60"/>
    </edge>
    <edge id=":Int1_15" function="internal">
        <lane id=":Int1_15_0" index="0" speed="3.65" length="3.23" shape="500.80,387.60 500.00,388.00 499.20,387.60 498.40,386.40"/>
    </edge>
    <edge id=":Int1_8" function="internal">
        <lane id=":Int1_8_0" index="0" speed="6.51" length="9.03" shape="489.60,392.00 492.05,391.65 493.80,390.60 494.85,388.85 495.20,386.40"/>
    </edge>
    <edge id=":Int1_9" function="internal">
        <lane id=":Int1_9_0" index="0" speed="13.89" length="20.80" shape="489.60,392.00 510.40,392.00"/>
        <lane id=":Int1_9_1" index="1" speed="13.89" length="20.80" shape="489.60,395.20 510.40,395.20"/>
        <lane id=":Int1_9_2" index="2" speed="13.89" length="20.80" shape="489.60,398.40 510.40,398.40"/>
    </edge>
    <edge id=":Int1_12" function="internal">
        <lane id=":Int1_12_0" index="0" speed="8.10" length="14.57" shape="489.60,398.40 494.85,398.75 498.60,399.80 500.85,401.55 501.60,404.00"/>
    </edge>
    <edge id=":Int2_0" function="internal">
        <lane id=":Int2_0_0" index="0" speed="13.89" length="17.60" shape="1095.20,404.00 1095.20,386.40"/>
        <lane id=":Int2_0_1" index="1" speed="13.89" length="17.60" shape="1098.40,404.00 1098.40,386.40"/>
    </edge>
    <edge id=":Int2_2" function="internal">
        <lane id=":Int2_2_0" index="0" speed="8.10" length="2.37" shape="1098.40,404.00 1099.09,401.73"/>
    </edge>
    <edge id=":Int2_3" function="internal">
        <lane id=":Int2_3_0" index="0" speed="3.65" length="1.44" shape="1098.40,404.00 1099.20,402.80"/>
    </edge>
    <edge id=":Int2_13" function="internal">
        <lane id=":Int2_13_0" index="0" speed="8.10" length="12.20" shape="1099.09,401.73 1099.15,401.55 1101.40,399.80 1105.15,398.75 1110.40,398.40"/>
    </edge>
    <edge id=":Int2_14" function="internal">
        <lane id=":Int2_14_0" index="0" speed="3.65" length="3.23" shape="1099.20,402.80 1100.00,402.40 1100.80,402.80 1101.60,404.00"/>
    </edge>
    <edge id=":Int2_4" function="internal">
        <lane id=":Int2_4_0" index="0" speed="6.51" length="9.03" shape="1104.80,386.40 1105.15,388.85 1106.20,390.60 1107.95,391.65 1110.40,392.00"/>
    </edge>
    <edge id=":Int2_5" function="internal">
        <lane id=":Int2_5_0" index="0" speed="13.89" length="17.60" shape="1104.80,386.40 1104.80,404.00"/>
        <lane id=":Int2_5_1" index="1" speed="13.89" length="17.60" shape="1101.60,386.40 1101.60,404.00"/>
    </edge>
    <edge id=":Int2_7" function="internal">
        <lane id=":Int2_7_0" index="0" speed="3.65" length="1.44" shape="1101.60,386.40 1100.80,387.60"/>
    </edge>
    <edge id=":Int2_15" function="internal">
        <lane id=":Int2_15_0" index="0" speed="3.65" length="3.23" shape="1100.80,387.60 1100.00,388.00 1099.20,387.60 1098.40,386.40"/>
    </edge>
    <edge id=":Int2_8" function="internal">
        <lane id=":Int2_8_0" index="0" speed="6.51" length="9.03" shape="1089.60,392.00 1092.05,391.65 1093.80,390.60 1094.85,388.85 1095.20,386.40"/>
    </edge>
    <edge id=":Int2_9" function="internal">
        <lane id=":Int2_9_0" index="0" speed="13.89" length="20.80" shape="1089.60,392.00 1110.40,392.00"/>
        <lane id=":Int2_9_1" index="1" speed="13.89" length="20.80" shape="1089.60,395.20 1110.40,395.20"/>
        <lane id=":Int2_9_2" index="2" speed="13.89" length="20.80" shape="1089.60,398.40 1110.40,398.40"/>
    </edge>
    <edge id=":Int2_12" function="internal">
        <lane id=":Int2_12_0" index="0" speed="8.10" length="14.57" shape="1089.60,398.40 1094.85,398.75 1098.60,399.80 1100.85,401.55 1101.60,404.00"/>
    </edge>
    <edge id=":Int3_0" function="internal">
        <lane id=":Int3_0_0" index="0" speed="13.89" length="109.60" shape="1695.20,450.00 1695.20,340.40"/>
        <lane id=":Int3_0_1" index="1" speed="13.89" length="109.60" shape="1698.40,450.00 1698.40,340.40"/>
    </edge>
    <edge id=":Int3_2" function="internal">
        <lane id=":Int3_2_0" index="0" speed="13.89" length="88.44" shape="1698.40,450.00 1702.03,427.42 1712.90,411.30 1731.03,401.62 1756.40,398.40"/>
    </edge>
    <edge id=":Int3_3" function="internal">
        <lane id=":Int3_3_0" index="0" speed="3.65" length="4.67" shape="1698.40,450.00 1699.20,448.80 1700.00,448.40 1700.80,448.80 1701.60,450.00"/>
    </edge>
    <edge id=":Int3_4" function="internal">
        <lane id=":Int3_4_0" index="0" speed="13.89" length="83.22" shape="1704.80,340.40 1708.03,362.98 1717.70,379.10 1733.83,388.77 1756.40,392.00"/>
        <lane id=":Int3_4_1" index="1" speed="13.89" length="88.38" shape="1701.60,340.40 1705.03,364.38 1715.30,381.50 1732.42,391.77 1756.40,395.20"/>
    </edge>
    <edge id=":Int3_6" function="internal">
        <lane id=":Int3_6_0" index="0" speed="13.89" length="109.62" shape="1701.60,340.40 1704.80,450.00"/>
        <lane id=":Int3_6_1" index="1" speed="13.89" length="109.62" shape="1701.60,340.40 1701.60,450.00"/>
    </edge>
    <edge id=":Int3_8" function="internal">
        <lane id=":Int3_8_0" index="0" speed="3.65" length="4.67" shape="1701.60,340.40 1700.80,341.60 1700.00,342.00 1699.20,341.60 1698.40,340.40"/>
    </edge>
    <edge id=":Int3_9" function="internal">
        <lane id=":Int3_9_0" index="0" speed="13.89" length="83.22" shape="1643.60,392.00 1666.18,388.77 1682.30,379.10 1691.98,362.97 1695.20,340.40"/>
    </edge>
    <edge id=":Int3_10" function="internal">
        <lane id=":Int3_10_0" index="0" speed="13.89" length="112.80" shape="1643.60,392.00 1756.40,392.00"/>
        <lane id=":Int3_10_1" index="1" speed="13.89" length="112.80" shape="1643.60,395.20 1756.40,395.20"/>
        <lane id=":Int3_10_2" index="2" speed="13.89" length="112.80" shape="1643.60,398.40 1756.40,398.40"/>
    </edge>
    <edge id=":Int3_13" function="internal">
        <lane id=":Int3_13_0" index="0" speed="13.89" length="88.44" shape="1643.60,398.40 1668.97,401.62 1687.10,411.30 1697.97,427.42 1701.60,450.00"/>
    </edge>
    <edge id=":Int4_0" function="internal">
        <lane id=":Int4_0_0" index="0" speed="13.89" length="17.60" shape="2295.20,404.00 2295.20,386.40"/>
        <lane id=":Int4_0_1" index="1" speed="13.89" length="17.60" shape="2298.40,404.00 2298.40,386.40"/>
    </edge>
    <edge id=":Int4_2" function="internal">
        <lane id=":Int4_2_0" index="0" speed="8.10" length="2.37" shape="2298.40,404.00 2299.09,401.73"/>
    </edge>
    <edge id=":Int4_3" function="internal">
        <lane id=":Int4_3_0" index="0" speed="3.65" length="1.44" shape="2298.40,404.00 2299.20,402.80"/>
    </edge>
    <edge id=":Int4_13" function="internal">
        <lane id=":Int4_13_0" index="0" speed="8.10" length="12.20" shape="2299.09,401.73 2299.15,401.55 2301.40,399.80 2305.15,398.75 2310.40,398.40"/>
    </edge>
    <edge id=":Int4_14" function="internal">
        <lane id=":Int4_14_0" index="0" speed="3.65" length="3.23" shape="2299.20,402.80 2300.00,402.40 2300.80,402.80 2301.60,404.00"/>
    </edge>
    <edge id=":Int4_4" function="internal">
        <lane id=":Int4_4_0" index="0" speed="6.51" length="9.03" shape="2304.80,386.40 2305.15,388.85 2306.20,390.60 2307.95,391.65 2310.40,392.00"/>
    </edge>
    <edge id=":Int4_5" function="internal">
        <lane id=":Int4_5_0" index="0" speed="13.89" length="17.60" shape="2304.80,386.40 2304.80,404.00"/>
        <lane id=":Int4_5_1" index="1" speed="13.89" length="17.60" shape="2301.60,386.40 2301.60,404.00"/>
    </edge>
    <edge id=":Int4_7" function="internal">
        <lane id=":Int4_7_0" index="0" speed="3.65" length="1.44" shape="2301.60,386.40 2300.80,387.60"/>
    </edge>
    <edge id=":Int4_15" function="internal">
        <lane id=":Int4_15_0" index="0" speed="3.65" length="3.23" shape="2300.80,387.60 2300.00,388.00 2299.20,387.60 2298.40,386.40"/>
    </edge>
    <edge id=":Int4_8" function="internal">
        <lane id=":Int4_8_0" index="0" speed="6.51" length="9.03" shape="2289.60,392.00 2292.05,391.65 2293.80,390.60 2294.85,388.85 2295.20,386.40"/>
    </edge>
    <edge id=":Int4_9" function="internal">
        <lane id=":Int4_9_0" index="0" speed="13.89" length="20.80" shape="2289.60,392.00 2310.40,392.00"/>
        <lane id=":Int4_9_1" index="1" speed="13.89" length="20.80" shape="2289.60,395.20 2310.40,395.20"/>
        <lane id=":Int4_9_2" index="2" speed="13.89" length="20.80" shape="2289.60,398.40 2310.40,398.40"/>
    </edge>
    <edge id=":Int4_12" function="internal">
        <lane id=":Int4_12_0" index="0" speed="8.10" length="14.57" shape="2289.60,398.40 2294.85,398.75 2298.60,399.80 2300.85,401.55 2301.60,404.00"/>
    </edge>
    <edge id=":N1_0" function="internal">
        <lane id=":N1_0_0" index="0" speed="3.65" length="4.67" shape="501.60,786.78 500.80,787.98 500.00,788.38 499.20,787.98 498.40,786.78"/>
    </edge>
    <edge id=":N1_1" function="internal">
        <lane id=":N1_1_0" index="0" speed="5.54" length="9.46" shape="489.48,789.53 491.98,791.08 493.77,791.13 494.84,789.70 495.20,786.78"/>
        <lane id=":N1_1_1" index="1" speed="6.53" length="13.79" shape="489.48,789.53 493.38,792.04 496.17,792.41 497.84,790.66 498.40,786.78"/>
    </edge>
    <edge id=":N2_0" function="internal">
        <lane id=":N2_0_0" index="0" speed="9.58" length="20.81" shape="1112.80,801.60 1106.50,800.89 1102.00,798.77 1099.30,795.23 1098.40,790.27"/>
    </edge>
    <edge id=":N2_1" function="internal">
        <lane id=":N2_1_0" index="0" speed="3.65" length="4.67" shape="1101.60,790.27 1100.80,791.47 1100.00,791.87 1099.20,791.47 1098.40,790.27"/>
    </edge>
    <edge id=":N2_2" function="internal">
        <lane id=":N2_2_0" index="0" speed="5.88" length="9.11" shape="1089.29,794.40 1091.88,794.95 1093.72,794.44 1094.83,792.88 1095.20,790.27"/>
    </edge>
    <edge id=":N3_0" function="internal">
        <lane id=":N3_0_0" index="0" speed="7.88" length="13.71" shape="1704.80,798.50 1704.01,799.86 1701.62,800.82 1697.66,801.41 1692.10,801.60"/>
    </edge>
    <edge id=":N3_1" function="internal">
        <lane id=":N3_1_0" index="0" speed="3.65" length="4.67" shape="1701.60,798.50 1700.80,799.70 1700.00,800.10 1699.20,799.70 1698.40,798.50"/>
    </edge>
    <edge id=":N4_0" function="internal">
        <lane id=":N4_0_0" index="0" speed="3.65" length="4.67" shape="2301.60,800.00 2300.80,801.20 2300.00,801.60 2299.20,801.20 2298.40,800.00"/>
    </edge>
    <edge id=":S1_0" function="internal">
        <lane id=":S1_0_0" index="0" speed="3.65" length="4.67" shape="498.40,7.20 499.20,6.00 500.00,5.60 500.80,6.00 501.60,7.20"/>
    </edge>
    <edge id=":S1_1" function="internal">
        <lane id=":S1_1_0" index="0" speed="6.51" length="9.03" shape="510.40,1.60 507.95,1.95 506.20,3.00 505.15,4.75 504.80,7.20"/>
        <lane id=":S1_1_1" index="1" speed="7.33" length="11.73" shape="510.40,1.60 506.55,1.95 503.80,3.00 502.15,4.75 501.60,7.20"/>
    </edge>
    <edge id=":S2_0" function="internal">
        <lane id=":S2_0_0" index="0" speed="6.51" length="9.03" shape="1095.20,7.20 1094.85,4.75 1093.80,3.00 1092.05,1.95 1089.60,1.60"/>
    </edge>
    <edge id=":S2_1" function="internal">
        <lane id=":S2_1_0" index="0" speed="8.67" length="16.85" shape="1098.40,7.20 1099.15,3.35 1101.40,0.60 1105.15,-1.05 1110.40,-1.60"/>
    </edge>
    <edge id=":S2_2" function="internal">
        <lane id=":S2_2_0" index="0" speed="8.67" length="16.85" shape="1098.40,7.20 1099.15,3.35 1101.40,0.60 1105.15,-1.05 1110.40,-1.60"/>
    </edge>
    <edge id=":S2_3" function="internal">
        <lane id=":S2_3_0" index="0" speed="3.65" length="4.67" shape="1098.40,7.20 1099.20,6.00 1100.00,5.60 1100.80,6.00 1101.60,7.20"/>
    </edge>
    <edge id=":S3_0" function="internal">
        <lane id=":S3_0_0" index="0" speed="3.65" length="4.67" shape="1698.40,1.50 1699.20,0.30 1700.00,-0.10 1700.80,0.30 1701.60,1.50"/>
    </edge>
    <edge id=":S3_1" function="internal">
        <lane id=":S3_1_0" index="0" speed="7.88" length="13.71" shape="1692.10,-1.60 1697.66,-1.41 1701.62,-0.83 1704.01,0.14 1704.80,1.50"/>
        <lane id=":S3_1_1" index="1" speed="7.02" length="10.69" shape="1692.10,-1.60 1696.26,-1.41 1699.22,-0.83 1701.01,0.14 1701.60,1.50"/>
    </edge>
    <edge id=":S4_0" function="internal">
        <lane id=":S4_0_0" index="0" speed="3.65" length="4.67" shape="2298.40,1.50 2299.20,0.30 2300.00,-0.10 2300.80,0.30 2301.60,1.50"/>
    </edge>
    <edge id=":S4_1" function="internal">
        <lane id=":S4_1_0" index="0" speed="7.88" length="13.71" shape="2292.10,-1.60 2297.66,-1.41 2301.62,-0.83 2304.01,0.14 2304.80,1.50"/>
        <lane id=":S4_1_1" index="1" speed="7.02" length="10.69" shape="2292.10,-1.60 2296.26,-1.41 2299.22,-0.83 2301.01,0.14 2301.60,1.50"/>
    </edge>

    <edge id="1_to_2" from="Int1" to="Int2" priority="-1">
        <lane id="1_to_2_0" index="0" speed="13.89" length="579.20" shape="510.40,392.00 1089.60,392.00"/>
        <lane id="1_to_2_1" index="1" speed="13.89" length="579.20" shape="510.40,395.20 1089.60,395.20"/>
        <lane id="1_to_2_2" index="2" speed="13.89" length="579.20" shape="510.40,398.40 1089.60,398.40"/>
    </edge>
    <edge id="2_to_3" from="Int2" to="Int3" priority="-1">
        <lane id="2_to_3_0" index="0" speed="13.89" length="533.20" shape="1110.40,392.00 1643.60,392.00"/>
        <lane id="2_to_3_1" index="1" speed="13.89" length="533.20" shape="1110.40,395.20 1643.60,395.20"/>
        <lane id="2_to_3_2" index="2" speed="13.89" length="533.20" shape="1110.40,398.40 1643.60,398.40"/>
    </edge>
    <edge id="3_to_4" from="Int3" to="Int4" priority="-1">
        <lane id="3_to_4_0" index="0" speed="13.89" length="533.20" shape="1756.40,392.00 2289.60,392.00"/>
        <lane id="3_to_4_1" index="1" speed="13.89" length="533.20" shape="1756.40,395.20 2289.60,395.20"/>
        <lane id="3_to_4_2" index="2" speed="13.89" length="533.20" shape="1756.40,398.40 2289.60,398.40"/>
    </edge>
    <edge id="4_to_E" from="Int4" to="E_sink" priority="-1">
        <lane id="4_to_E_0" index="0" speed="13.89" length="489.60" shape="2310.40,392.00 2800.00,392.00"/>
        <lane id="4_to_E_1" index="1" speed="13.89" length="489.60" shape="2310.40,395.20 2800.00,395.20"/>
        <lane id="4_to_E_2" index="2" speed="13.89" length="489.60" shape="2310.40,398.40 2800.00,398.40"/>
    </edge>
    <edge id="Bypass_N3_to_N2" from="N3" to="N2" priority="-1">
        <lane id="Bypass_N3_to_N2_0" index="0" speed="13.89" length="579.30" shape="1692.10,801.60 1112.80,801.60"/>
    </edge>
    <edge id="Bypass_S2_to_S1" from="S2" to="S1" priority="-1">
        <lane id="Bypass_S2_to_S1_0" index="0" speed="13.89" length="579.20" shape="1089.60,1.60 510.40,1.60"/>
    </edge>
    <edge id="Bypass_S2_to_S3" from="S2" to="S3" priority="-1">
        <lane id="Bypass_S2_to_S3_0" index="0" speed="13.89" length="581.70" shape="1110.40,-1.60 1692.10,-1.60"/>
    </edge>
    <edge id="Bypass_S2_to_S4" from="S2" to="S4" priority="-1">
        <lane id="Bypass_S2_to_S4_0" index="0" speed="13.89" length="1181.70" shape="1110.40,-1.60 2292.10,-1.60"/>
    </edge>
    <edge id="Bypass_W_to_N1" from="W_origin" to="N1" priority="-1">
        <lane id="Bypass_W_to_N1_0" index="0" speed="16.67" length="614.59" shape="9.56,405.60 489.48,789.53"/>
    </edge>
    <edge id="Bypass_W_to_N2" from="W_origin" to="N2" priority="-1">
        <lane id="Bypass_W_to_N2_0" index="0" speed="16.67" length="1147.00" shape="11.35,402.42 1089.29,794.40"/>
    </edge>
    <edge id="Int1_to_N1" from="Int1" to="N1" priority="-1">
        <lane id="Int1_to_N1_0" index="0" speed="13.89" length="382.78" shape="504.80,404.00 504.80,786.78"/>
        <lane id="Int1_to_N1_1" index="1" speed="13.89" length="382.78" shape="501.60,404.00 501.60,786.78"/>
    </edge>
    <edge id="Int1_to_S1" from="Int1" to="S1" priority="-1">
        <lane id="Int1_to_S1_0" index="0" speed="13.89" length="379.20" shape="495.20,386.40 495.20,7.20"/>
        <lane id="Int1_to_S1_1" index="1" speed="13.89" length="379.20" shape="498.40,386.40 498.40,7.20"/>
    </edge>
    <edge id="Int2_to_N2" from="Int2" to="N2" priority="-1">
        <lane id="Int2_to_N2_0" index="0" speed="13.89" length="386.27" shape="1104.80,404.00 1104.80,790.27"/>
        <lane id="Int2_to_N2_1" index="1" speed="13.89" length="386.27" shape="1101.60,404.00 1101.60,790.27"/>
    </edge>
    <edge id="Int2_to_S2" from="Int2" to="S2" priority="-1">
        <lane id="Int2_to_S2_0" index="0" speed="13.89" length="379.20" shape="1095.20,386.40 1095.20,7.20"/>
        <lane id="Int2_to_S2_1" index="1" speed="13.89" length="379.20" shape="1098.40,386.40 1098.40,7.20"/>
    </edge>
    <edge id="Int3_to_N3" from="Int3" to="N3" priority="-1">
        <lane id="Int3_to_N3_0" index="0" speed="13.89" length="348.50" shape="1704.80,450.00 1704.80,798.50"/>
        <lane id="Int3_to_N3_1" index="1" speed="13.89" length="348.50" shape="1701.60,450.00 1701.60,798.50"/>
    </edge>
    <edge id="Int3_to_S3" from="Int3" to="S3" priority="-1">
        <lane id="Int3_to_S3_0" index="0" speed="13.89" length="338.90" shape="1695.20,340.40 1695.20,1.50"/>
        <lane id="Int3_to_S3_1" index="1" speed="13.89" length="338.90" shape="1698.40,340.40 1698.40,1.50"/>
    </edge>
    <edge id="Int4_to_N4" from="Int4" to="N4" priority="-1">
        <lane id="Int4_to_N4_0" index="0" speed="13.89" length="396.00" shape="2304.80,404.00 2304.80,800.00"/>
        <lane id="Int4_to_N4_1" index="1" speed="13.89" length="396.00" shape="2301.60,404.00 2301.60,800.00"/>
    </edge>
    <edge id="Int4_to_S4" from="Int4" to="S4" priority="-1">
        <lane id="Int4_to_S4_0" index="0" speed="13.89" length="384.90" shape="2295.20,386.40 2295.20,1.50"/>
        <lane id="Int4_to_S4_1" index="1" speed="13.89" length="384.90" shape="2298.40,386.40 2298.40,1.50"/>
    </edge>
    <edge id="N1_to_Int1" from="N1" to="Int1" priority="-1">
        <lane id="N1_to_Int1_0" index="0" speed="13.89" length="382.78" shape="495.20,786.78 495.20,404.00"/>
        <lane id="N1_to_Int1_1" index="1" speed="13.89" length="382.78" shape="498.40,786.78 498.40,404.00"/>
    </edge>
    <edge id="N2_to_Int2" from="N2" to="Int2" priority="-1">
        <lane id="N2_to_Int2_0" index="0" speed="13.89" length="386.27" shape="1095.20,790.27 1095.20,404.00"/>
        <lane id="N2_to_Int2_1" index="1" speed="13.89" length="386.27" shape="1098.40,790.27 1098.40,404.00"/>
    </edge>
    <edge id="N3_to_Int3" from="N3" to="Int3" priority="-1">
        <lane id="N3_to_Int3_0" index="0" speed="13.89" length="348.50" shape="1695.20,798.50 1695.20,450.00"/>
        <lane id="N3_to_Int3_1" index="1" speed="13.89" length="348.50" shape="1698.40,798.50 1698.40,450.00"/>
    </edge>
    <edge id="N4_to_Int4" from="N4" to="Int4" priority="-1">
        <lane id="N4_to_Int4_0" index="0" speed="13.89" length="396.00" shape="2295.20,800.00 2295.20,404.00"/>
        <lane id="N4_to_Int4_1" index="1" speed="13.89" length="396.00" shape="2298.40,800.00 2298.40,404.00"/>
    </edge>
    <edge id="S1_to_Int1" from="S1" to="Int1" priority="-1">
        <lane id="S1_to_Int1_0" index="0" speed="13.89" length="379.20" shape="504.80,7.20 504.80,386.40"/>
        <lane id="S1_to_Int1_1" index="1" speed="13.89" length="379.20" shape="501.60,7.20 501.60,386.40"/>
    </edge>
    <edge id="S2_to_Int2" from="S2" to="Int2" priority="-1">
        <lane id="S2_to_Int2_0" index="0" speed="13.89" length="379.20" shape="1104.80,7.20 1104.80,386.40"/>
        <lane id="S2_to_Int2_1" index="1" speed="13.89" length="379.20" shape="1101.60,7.20 1101.60,386.40"/>
    </edge>
    <edge id="S3_to_Int3" from="S3" to="Int3" priority="-1">
        <lane id="S3_to_Int3_0" index="0" speed="13.89" length="338.90" shape="1704.80,1.50 1704.80,340.40"/>
        <lane id="S3_to_Int3_1" index="1" speed="13.89" length="338.90" shape="1701.60,1.50 1701.60,340.40"/>
    </edge>
    <edge id="S4_to_Int4" from="S4" to="Int4" priority="-1">
        <lane id="S4_to_Int4_0" index="0" speed="13.89" length="384.90" shape="2304.80,1.50 2304.80,386.40"/>
        <lane id="S4_to_Int4_1" index="1" speed="13.89" length="384.90" shape="2301.60,1.50 2301.60,386.40"/>
    </edge>
    <edge id="W_to_1" from="W_origin" to="Int1" priority="-1">
        <lane id="W_to_1_0" index="0" speed="13.89" length="478.74" shape="10.86,392.00 489.60,392.00"/>
        <lane id="W_to_1_1" index="1" speed="13.89" length="478.74" shape="10.86,395.20 489.60,395.20"/>
        <lane id="W_to_1_2" index="2" speed="13.89" length="478.74" shape="10.86,398.40 489.60,398.40"/>
    </edge>

    <tlLogic id="Int1" type="static" programID="0" offset="0">
        <phase duration="42" state="GGggGGGgrrrrr"/>
        <phase duration="3"  state="yyyyyyyyrrrrr"/>
        <phase duration="42" state="rrrrrrrrGGGGG"/>
        <phase duration="3"  state="rrrrrrrryyyyy"/>
    </tlLogic>
    <tlLogic id="Int2" type="static" programID="0" offset="0">
        <phase duration="42" state="GGggGGGgrrrrr"/>
        <phase duration="3"  state="yyyyyyyyrrrrr"/>
        <phase duration="42" state="rrrrrrrrGGGGG"/>
        <phase duration="3"  state="rrrrrrrryyyyy"/>
    </tlLogic>
    <tlLogic id="Int4" type="static" programID="0" offset="0">
        <phase duration="42" state="GGggGGGgrrrrr"/>
        <phase duration="3"  state="yyyyyyyyrrrrr"/>
        <phase duration="42" state="rrrrrrrrGGGGG"/>
        <phase duration="3"  state="rrrrrrrryyyyy"/>
    </tlLogic>

    <junction id="E_sink" type="dead_end" x="2800.00" y="400.00" incLanes="4_to_E_0 4_to_E_1 4_to_E_2" intLanes="" shape="2800.00,390.40 2800.00,400.00"/>
    <junction id="Int1" type="traffic_light" x="500.00" y="400.00" incLanes="N1_to_Int1_0 N1_to_Int1_1 S1_to_Int1_0 S1_to_Int1_1 W_to_1_0 W_to_1_1 W_to_1_2" intLanes=":Int1_0_0 :Int1_0_1 :Int1_13_0 :Int1_14_0 :Int1_4_0 :Int1_5_0 :Int1_5_1 :Int1_15_0 :Int1_8_0 :Int1_9_0 :Int1_9_1 :Int1_9_2 :Int1_12_0" shape="493.60,404.00 506.40,404.00 506.84,401.78 507.40,401.00 508.18,400.44 509.18,400.11 510.40,400.00 510.40,390.40 508.18,389.96 507.40,389.40 506.84,388.62 506.51,387.62 506.40,386.40 493.60,386.40 493.16,388.62 492.60,389.40 491.82,389.96 490.82,390.29 489.60,390.40 489.60,400.00 491.82,400.44 492.60,401.00 493.16,401.78 493.49,402.78">
        <request index="0"  response="1111100000000" foes="1111110000000" cont="0"/>
        <request index="1"  response="1111100000000" foes="1111110000000" cont="0"/>
        <request index="2"  response="1111001100000" foes="1111001100000" cont="1"/>
        <request index="3"  response="1000001100000" foes="1000001100000" cont="1"/>
        <request index="4"  response="0111000000000" foes="0111000000000" cont="0"/>
        <request index="5"  response="1111000000000" foes="1111000001100" cont="0"/>
        <request index="6"  response="1111000000000" foes="1111000001100" cont="0"/>
        <request index="7"  response="0000000000011" foes="0000000000011" cont="1"/>
        <request index="8"  response="0000000000000" foes="0000000000011" cont="0"/>
        <request index="9"  response="0000000000000" foes="0000001110111" cont="0"/>
        <request index="10" response="0000000000000" foes="0000001110111" cont="0"/>
        <request index="11" response="0000000000100" foes="0000001110111" cont="0"/>
        <request index="12" response="0000000000100" foes="0000001101111" cont="0"/>
    </junction>
    <junction id="Int2" type="traffic_light" x="1100.00" y="400.00" incLanes="N2_to_Int2_0 N2_to_Int2_1 S2_to_Int2_0 S2_to_Int2_1 1_to_2_0 1_to_2_1 1_to_2_2" intLanes=":Int2_0_0 :Int2_0_1 :Int2_13_0 :Int2_14_0 :Int2_4_0 :Int2_5_0 :Int2_5_1 :Int2_15_0 :Int2_8_0 :Int2_9_0 :Int2_9_1 :Int2_9_2 :Int2_12_0" shape="1093.60,404.00 1106.40,404.00 1106.84,401.78 1107.40,401.00 1108.18,400.44 1109.18,400.11 1110.40,400.00 1110.40,390.40 1108.18,389.96 1107.40,389.40 1106.84,388.62 1106.51,387.62 1106.40,386.40 1093.60,386.40 1093.16,388.62 1092.60,389.40 1091.82,389.96 1090.82,390.29 1089.60,390.40 1089.60,400.00 1091.82,400.44 1092.60,401.00 1093.16,401.78 1093.49,402.78">
        <request index="0"  response="1111100000000" foes="1111110000000" cont="0"/>
        <request index="1"  response="1111100000000" foes="1111110000000" cont="0"/>
        <request index="2"  response="1111001100000" foes="1111001100000" cont="1"/>
        <request index="3"  response="1000001100000" foes="1000001100000" cont="1"/>
        <request index="4"  response="0111000000000" foes="0111000000000" cont="0"/>
        <request index="5"  response="1111000000000" foes="1111000001100" cont="0"/>
        <request index="6"  response="1111000000000" foes="1111000001100" cont="0"/>
        <request index="7"  response="0000000000011" foes="0000000000011" cont="1"/>
        <request index="8"  response="0000000000000" foes="0000000000011" cont="0"/>
        <request index="9"  response="0000000000000" foes="0000001110111" cont="0"/>
        <request index="10" response="0000000000000" foes="0000001110111" cont="0"/>
        <request index="11" response="0000000000100" foes="0000001110111" cont="0"/>
        <request index="12" response="0000000000100" foes="0000001101111" cont="0"/>
    </junction>
    <junction id="Int3" type="priority" x="1700.00" y="400.00" incLanes="N3_to_Int3_0 N3_to_Int3_1 S3_to_Int3_0 S3_to_Int3_1 2_to_3_0 2_to_3_1 2_to_3_2" intLanes=":Int3_0_0 :Int3_0_1 :Int3_2_0 :Int3_3_0 :Int3_4_0 :Int3_4_1 :Int3_6_0 :Int3_6_1 :Int3_8_0 :Int3_9_0 :Int3_10_0 :Int3_10_1 :Int3_10_2 :Int3_13_0" shape="1693.60,450.00 1706.40,450.00 1756.40,400.00 1756.40,390.40 1706.40,340.40 1693.60,340.40 1643.60,390.40 1643.60,400.00" radius="50.00">
        <request index="0"  response="11111000000000" foes="11111100000000" cont="0"/>
        <request index="1"  response="11111000000000" foes="11111100000000" cont="0"/>
        <request index="2"  response="11110011000000" foes="11110011000000" cont="0"/>
        <request index="3"  response="10000011000000" foes="10000011000000" cont="0"/>
        <request index="4"  response="01110000000000" foes="01110000000000" cont="0"/>
        <request index="5"  response="01110000000000" foes="01110000000000" cont="0"/>
        <request index="6"  response="11110000000000" foes="11110000001100" cont="0"/>
        <request index="7"  response="11110000000000" foes="11110000001100" cont="0"/>
        <request index="8"  response="00000000000011" foes="00000000000011" cont="0"/>
        <request index="9"  response="00000000000000" foes="00000000000011" cont="0"/>
        <request index="10" response="00000000000000" foes="00000011110111" cont="0"/>
        <request index="11" response="00000000000000" foes="00000011110111" cont="0"/>
        <request index="12" response="00000000000000" foes="00000011110111" cont="0"/>
        <request index="13" response="00000000000000" foes="00000011001111" cont="0"/>
    </junction>