<nodes>
    <node id="W_origin" x="-500" y="0" type="priority"/>
    <node id="Int1" x="0" y="0" type="traffic_light"/>
    <node id="Int2" x="600" y="0" type="traffic_light"/>
    <node id="Int3" x="1200" y="0" type="priority" radius="50"/>
    <node id="Int4" x="1800" y="0" type="traffic_light"/>
    <node id="E_sink" x="2300" y="0" type="priority"/>
        <node id="N1" x="0" y="400" type="priority"/>
    <node id="S1" x="0" y="-400" type="priority"/>
    <node id="N2" x="600" y="400" type="priority"/>
    <node id="S2" x="600" y="-400" type="priority"/>
    <node id="N3" x="1200" y="400" type="priority"/>
    <node id="S3" x="1200" y="-400" type="priority"/>
    <node id="N4" x="1800" y="400" type="priority"/>
    <node id="S4" x="1800" y="-400" type="priority"/>
</nodes>