<configuration><input><net-file value="baku.net.xml"/><route-files value="baku.rou.xml"/></input></configuration>