<routes>
    <vType id="baku_driver" 
           accel="3.0" decel="8.0" sigma="1.0" 
           length="4.5" minGap="0.2" maxSpeed="30" 
           lcStrategic="0.1" 
           lcCooperative="0.0" 
           lcSpeedGain="50.0" 
           lcKeepRight="0.0"
           lcPushy="1.0"
           impatience="1.0" 
           guiShape="passenger" color="red"/>

    <route id="r_north" edges="tbilisi_ave_wide     salamzade_squeeze to_hasan_aliyev exit_center n1 n2 n3"/>
    <route id="r_south" edges="tbilisi_ave_wide salamzade_squeeze to_hasan_aliyev exit_center s1 s2 s3"/>

    <flow id="f_n" type="baku_driver" route="r_north" begin="0" end="3600" vehsPerHour="7500" departLane="random" departSpeed="max"/>
    <flow id="f_s" type="baku_driver" route="r_south" begin="0" end="3600" vehsPerHour="7500" departLane="random" departSpeed="max"/>
</routes>