<additional>
    <rerouter id="loop_forever" edges="exit_center">
        <interval begin="0" end="3600">
            <destProbReroute id="n3" probability="0.4"/>
            <destProbReroute id="s3" probability="0.6"/>
        </interval>
    </rerouter>
</additional>